$DATA1 SOURCE='PrimeSim HSPICE' VERSION='T-2022.06-SP1 linux64' PARAM_COUNT=0
.TITLE 'clkdivider'
 avg_power        temper           alter#          
    failed          25.0000        1               
