*
*
*
*                       LINUX           Sun Dec  3 18:09:54 2023
*
*
*
*  PROGRAM  advgen
*
*  Name           : advgen - Quantus - (64-bit)
*  Version        : 21.1.0-p101
*  Build Date     : Wed Mar 17 18:53:08 PDT 2021
*
*  HSPICE LIBRARY
*
*!LENGTH_UNITS METERS
*
*
*

*
.SUBCKT clock_serializer VDD VSS CLK1pt6G EN EN_b rst rst_b OUT
*
*
*  caps2d version: 10
*
*
*       TRANSISTOR CARDS
*
*
MI5/avD2_1	avC26	EN_b	VDD	VSS	nmos1v#20ivpcell#20gpdk045
+ L=4.5e-08	W=1.2e-07
+ AD=1.92e-14	AS=1.92e-14	PD=5.4e-07	PS=5.4e-07
+ scc=2.26628e-35 scb=9.08678e-18 sca=0.178731 sb=3.45e-07 sa=1.4e-07
MI5/avD2_2	avC53	EN	avC26	VSS	nmos1v#20ivpcell#20gpdk045
+ L=4.5e-08	W=1.2e-07
+ AD=1.68e-14	AS=1.68e-14	PD=5.4e-07	PS=5.4e-07
+ scc=2.26628e-35 scb=9.08678e-18 sca=0.178731 sb=1.4e-07 sa=3.45e-07
MI5/avD2_3	avC27	EN_b	VDD	VSS	nmos1v#20ivpcell#20gpdk045
+ L=4.5e-08	W=1.2e-07
+ AD=1.92e-14	AS=1.92e-14	PD=5.4e-07	PS=5.4e-07
+ scc=2.26628e-35 scb=9.08678e-18 sca=0.178731 sb=3.45e-07 sa=1.4e-07
MI5/avD2_4	avC49	EN	avC27	VSS	nmos1v#20ivpcell#20gpdk045
+ L=4.5e-08	W=1.2e-07
+ AD=1.68e-14	AS=1.68e-14	PD=5.4e-07	PS=5.4e-07
+ scc=2.26628e-35 scb=9.08853e-18 sca=0.180695 sb=1.4e-07 sa=3.45e-07
MI5/avD2_5	avC28	EN_b	VDD	VSS	nmos1v#20ivpcell#20gpdk045
+ L=4.5e-08	W=1.2e-07
+ AD=1.92e-14	AS=1.92e-14	PD=5.4e-07	PS=5.4e-07
+ scc=2.27096e-33 scb=1.0108e-16 sca=0.20735 sb=3.45e-07 sa=1.4e-07
MI5/avD2_6	avC50	EN	avC28	VSS	nmos1v#20ivpcell#20gpdk045
+ L=4.5e-08	W=1.2e-07
+ AD=1.68e-14	AS=1.68e-14	PD=5.4e-07	PS=5.4e-07
+ scc=1.28413e-31 scb=6.85398e-16 sca=0.215295 sb=1.4e-07 sa=3.45e-07
MI5/avD2_7	avC29	EN_b	VDD	VSS	nmos1v#20ivpcell#20gpdk045
+ L=4.5e-08	W=1.2e-07
+ AD=1.92e-14	AS=1.92e-14	PD=5.4e-07	PS=5.4e-07
+ scc=1.96247e-22 scb=2.21735e-11 sca=0.293188 sb=3.45e-07 sa=1.4e-07
MI5/avD2_8	avC51	EN	avC29	VSS	nmos1v#20ivpcell#20gpdk045
+ L=4.5e-08	W=1.2e-07
+ AD=1.68e-14	AS=1.68e-14	PD=5.4e-07	PS=5.4e-07
+ scc=1.08874e-20 scb=1.58372e-10 sca=0.321343 sb=1.4e-07 sa=3.45e-07
MI5/avD2_9	avC22	EN_b	VDD	VSS	nmos1v#20ivpcell#20gpdk045
+ L=4.5e-08	W=1.2e-07
+ AD=1.92e-14	AS=1.92e-14	PD=5.4e-07	PS=5.4e-07
+ scc=2.26628e-35 scb=9.08678e-18 sca=0.178731 sb=3.45e-07 sa=1.4e-07
MI5/avD2_10	avC58	EN	avC22	VSS	nmos1v#20ivpcell#20gpdk045
+ L=4.5e-08	W=1.2e-07
+ AD=1.68e-14	AS=1.68e-14	PD=5.4e-07	PS=5.4e-07
+ scc=2.26628e-35 scb=9.08678e-18 sca=0.178731 sb=1.4e-07 sa=3.45e-07
MI5/avD2_11	avC23	EN_b	VDD	VSS	nmos1v#20ivpcell#20gpdk045
+ L=4.5e-08	W=1.2e-07
+ AD=1.92e-14	AS=1.92e-14	PD=5.4e-07	PS=5.4e-07
+ scc=2.26628e-35 scb=9.08678e-18 sca=0.178731 sb=3.45e-07 sa=1.4e-07
MI5/avD2_12	avC54	EN	avC23	VSS	nmos1v#20ivpcell#20gpdk045
+ L=4.5e-08	W=1.2e-07
+ AD=1.68e-14	AS=1.68e-14	PD=5.4e-07	PS=5.4e-07
+ scc=2.26628e-35 scb=9.08678e-18 sca=0.178731 sb=1.4e-07 sa=3.45e-07
MI5/avD2_13	avC24	EN_b	VDD	VSS	nmos1v#20ivpcell#20gpdk045
+ L=4.5e-08	W=1.2e-07
+ AD=1.92e-14	AS=1.92e-14	PD=5.4e-07	PS=5.4e-07
+ scc=2.26628e-35 scb=9.08678e-18 sca=0.178731 sb=3.45e-07 sa=1.4e-07
MI5/avD2_14	avC55	EN	avC24	VSS	nmos1v#20ivpcell#20gpdk045
+ L=4.5e-08	W=1.2e-07
+ AD=1.68e-14	AS=1.68e-14	PD=5.4e-07	PS=5.4e-07
+ scc=2.26628e-35 scb=9.08678e-18 sca=0.178731 sb=1.4e-07 sa=3.45e-07
MI5/avD2_15	avC25	EN_b	VDD	VSS	nmos1v#20ivpcell#20gpdk045
+ L=4.5e-08	W=1.2e-07
+ AD=1.92e-14	AS=1.92e-14	PD=5.4e-07	PS=5.4e-07
+ scc=2.26628e-35 scb=9.08678e-18 sca=0.178731 sb=3.45e-07 sa=1.4e-07
MI5/avD2_16	avC52	EN	avC25	VSS	nmos1v#20ivpcell#20gpdk045
+ L=4.5e-08	W=1.2e-07
+ AD=1.68e-14	AS=1.68e-14	PD=5.4e-07	PS=5.4e-07
+ scc=2.26628e-35 scb=9.08678e-18 sca=0.178731 sb=1.4e-07 sa=3.45e-07
MI5/avD2_17	avC18	EN_b	VDD	VSS	nmos1v#20ivpcell#20gpdk045
+ L=4.5e-08	W=1.2e-07
+ AD=1.92e-14	AS=1.92e-14	PD=5.4e-07	PS=5.4e-07
+ scc=2.26628e-35 scb=9.08678e-18 sca=0.178731 sb=3.45e-07 sa=1.4e-07
MI5/avD2_18	avC59	EN	avC18	VSS	nmos1v#20ivpcell#20gpdk045
+ L=4.5e-08	W=1.2e-07
+ AD=1.68e-14	AS=1.68e-14	PD=5.4e-07	PS=5.4e-07
+ scc=2.26628e-35 scb=9.08678e-18 sca=0.178731 sb=1.4e-07 sa=3.45e-07
MI5/avD2_19	avC19	EN_b	VDD	VSS	nmos1v#20ivpcell#20gpdk045
+ L=4.5e-08	W=1.2e-07
+ AD=1.92e-14	AS=1.92e-14	PD=5.4e-07	PS=5.4e-07
+ scc=2.26628e-35 scb=9.08678e-18 sca=0.178731 sb=3.45e-07 sa=1.4e-07
MI5/avD2_20	avC60	EN	avC19	VSS	nmos1v#20ivpcell#20gpdk045
+ L=4.5e-08	W=1.2e-07
+ AD=1.68e-14	AS=1.68e-14	PD=5.4e-07	PS=5.4e-07
+ scc=2.26628e-35 scb=9.08678e-18 sca=0.178731 sb=1.4e-07 sa=3.45e-07
MI5/avD2_21	avC20	EN_b	VDD	VSS	nmos1v#20ivpcell#20gpdk045
+ L=4.5e-08	W=1.2e-07
+ AD=1.92e-14	AS=1.92e-14	PD=5.4e-07	PS=5.4e-07
+ scc=2.26628e-35 scb=9.08678e-18 sca=0.178731 sb=3.45e-07 sa=1.4e-07
MI5/avD2_22	avC56	EN	avC20	VSS	nmos1v#20ivpcell#20gpdk045
+ L=4.5e-08	W=1.2e-07
+ AD=1.68e-14	AS=1.68e-14	PD=5.4e-07	PS=5.4e-07
+ scc=2.26628e-35 scb=9.08678e-18 sca=0.178731 sb=1.4e-07 sa=3.45e-07
MI5/avD2_23	avC21	EN_b	VDD	VSS	nmos1v#20ivpcell#20gpdk045
+ L=4.5e-08	W=1.2e-07
+ AD=1.92e-14	AS=1.92e-14	PD=5.4e-07	PS=5.4e-07
+ scc=2.26628e-35 scb=9.08678e-18 sca=0.178731 sb=3.45e-07 sa=1.4e-07
MI5/avD2_24	avC57	EN	avC21	VSS	nmos1v#20ivpcell#20gpdk045
+ L=4.5e-08	W=1.2e-07
+ AD=1.68e-14	AS=1.68e-14	PD=5.4e-07	PS=5.4e-07
+ scc=2.26628e-35 scb=9.08678e-18 sca=0.178731 sb=1.4e-07 sa=3.45e-07
MI5/avD2_25	avC4	EN_b	VDD	VSS	nmos1v#20ivpcell#20gpdk045
+ L=4.5e-08	W=1.2e-07
+ AD=1.92e-14	AS=1.92e-14	PD=5.4e-07	PS=5.4e-07
+ scc=2.26628e-35 scb=9.08678e-18 sca=0.178731 sb=3.45e-07 sa=1.4e-07
MI5/avD2_26	avC64	EN	avC4	VSS	nmos1v#20ivpcell#20gpdk045
+ L=4.5e-08	W=1.2e-07
+ AD=1.68e-14	AS=1.68e-14	PD=5.4e-07	PS=5.4e-07
+ scc=2.26628e-35 scb=9.08678e-18 sca=0.178731 sb=1.4e-07 sa=3.45e-07
MI5/avD2_27	avC15	EN_b	VDD	VSS	nmos1v#20ivpcell#20gpdk045
+ L=4.5e-08	W=1.2e-07
+ AD=1.92e-14	AS=1.92e-14	PD=5.4e-07	PS=5.4e-07
+ scc=2.26628e-35 scb=9.08678e-18 sca=0.178731 sb=3.45e-07 sa=1.4e-07
MI5/avD2_28	avC61	EN	avC15	VSS	nmos1v#20ivpcell#20gpdk045
+ L=4.5e-08	W=1.2e-07
+ AD=1.68e-14	AS=1.68e-14	PD=5.4e-07	PS=5.4e-07
+ scc=2.26628e-35 scb=9.08678e-18 sca=0.178731 sb=1.4e-07 sa=3.45e-07
MI5/avD2_29	avC16	EN_b	VDD	VSS	nmos1v#20ivpcell#20gpdk045
+ L=4.5e-08	W=1.2e-07
+ AD=1.92e-14	AS=1.92e-14	PD=5.4e-07	PS=5.4e-07
+ scc=2.26628e-35 scb=9.08678e-18 sca=0.178731 sb=3.45e-07 sa=1.4e-07
MI5/avD2_30	avC62	EN	avC16	VSS	nmos1v#20ivpcell#20gpdk045
+ L=4.5e-08	W=1.2e-07
+ AD=1.68e-14	AS=1.68e-14	PD=5.4e-07	PS=5.4e-07
+ scc=2.26628e-35 scb=9.08678e-18 sca=0.178731 sb=1.4e-07 sa=3.45e-07
MI5/avD2_31	avC17	EN_b	VDD	VSS	nmos1v#20ivpcell#20gpdk045
+ L=4.5e-08	W=1.2e-07
+ AD=1.92e-14	AS=1.92e-14	PD=5.4e-07	PS=5.4e-07
+ scc=2.26628e-35 scb=9.08678e-18 sca=0.178731 sb=3.45e-07 sa=1.4e-07
MI5/avD2_32	avC63	EN	avC17	VSS	nmos1v#20ivpcell#20gpdk045
+ L=4.5e-08	W=1.2e-07
+ AD=1.68e-14	AS=1.68e-14	PD=5.4e-07	PS=5.4e-07
+ scc=2.26628e-35 scb=9.08678e-18 sca=0.178731 sb=1.4e-07 sa=3.45e-07
MI6/I3/avD2_1	I6/I3/avC6	avC63	VSS	VSS
+ nmos1v#20ivpcell#20gpdk045	L=4.5e-08	W=1.2e-07
+ AD=1.68e-14	AS=1.68e-14	PD=5.2e-07	PS=5.2e-07
+ scc=1.577708e-09 scb=3.876962e-05 sca=1.511177e+00 sb=1.4e-07 sa=1.4e-07
MI6/I3/avD2_2	I6/I3/avC7	avC53	VSS	VSS
+ nmos1v#20ivpcell#20gpdk045	L=4.5e-08	W=1.2e-07
+ AD=1.68e-14	AS=1.68e-14	PD=5.2e-07	PS=5.2e-07
+ scc=4.026852e-09 scb=8.691233e-05 sca=2.049485e+00 sb=1.4e-07 sa=1.4e-07
MI6/I3/avD2_3	I6/avC23	avC53	I6/I3/avC6	VSS
+ nmos1v#20ivpcell#20gpdk045	L=4.5e-08	W=1.2e-07
+ AD=1.92e-14	AS=1.92e-14	PD=5.4e-07	PS=5.4e-07
+ scc=1.184762e-05 scb=2.540335e-03 sca=4.501199e+00 sb=3.45e-07 sa=1.4e-07
MI6/I3/avD2_4	avC63	I6/I3/avC7	I6/avC23	VSS
+ nmos1v#20ivpcell#20gpdk045	L=4.5e-08	W=1.2e-07
+ AD=1.68e-14	AS=1.68e-14	PD=5.4e-07	PS=5.4e-07
+ scc=4.404766e-04 scb=1.203904e-02 sca=1.012057e+01 sb=1.4e-07 sa=3.45e-07
MI6/I2/avD2_1	I6/I2/avC6	I6/avC23	VSS	VSS
+ nmos1v#20ivpcell#20gpdk045	L=4.5e-08	W=1.2e-07
+ AD=1.68e-14	AS=1.68e-14	PD=5.2e-07	PS=5.2e-07
+ scc=1.577309e-09 scb=3.801661e-05 sca=1.249647e+00 sb=1.4e-07 sa=1.4e-07
MI6/I2/avD2_2	I6/I2/avC7	I6/avC24	VSS	VSS
+ nmos1v#20ivpcell#20gpdk045	L=4.5e-08	W=1.2e-07
+ AD=1.68e-14	AS=1.68e-14	PD=5.2e-07	PS=5.2e-07
+ scc=1.577309e-09 scb=3.801565e-05 sca=1.180883e+00 sb=1.4e-07 sa=1.4e-07
MI6/I2/avD2_3	I6/avC25	I6/avC24	I6/I2/avC6	VSS
+ nmos1v#20ivpcell#20gpdk045	L=4.5e-08	W=1.2e-07
+ AD=1.92e-14	AS=1.92e-14	PD=5.4e-07	PS=5.4e-07
+ scc=1.577309e-09 scb=3.801564e-05 sca=1.140421e+00 sb=3.45e-07 sa=1.4e-07
MI6/I2/avD2_4	I6/avC23	I6/I2/avC7	I6/avC25	VSS
+ nmos1v#20ivpcell#20gpdk045	L=4.5e-08	W=1.2e-07
+ AD=1.68e-14	AS=1.68e-14	PD=5.4e-07	PS=5.4e-07
+ scc=1.577309e-09 scb=3.801564e-05 sca=1.127460e+00 sb=1.4e-07 sa=3.45e-07
MI6/I4/avD2_1	I6/I4/avC6	avC61	VSS	VSS
+ nmos1v#20ivpcell#20gpdk045	L=4.5e-08	W=1.2e-07
+ AD=1.68e-14	AS=1.68e-14	PD=5.2e-07	PS=5.2e-07
+ scc=3.4732e-18 scb=2.65924e-09 sca=0.465849 sb=1.4e-07 sa=1.4e-07
MI6/I4/avD2_2	I6/I4/avC7	avC64	VSS	VSS
+ nmos1v#20ivpcell#20gpdk045	L=4.5e-08	W=1.2e-07
+ AD=1.68e-14	AS=1.68e-14	PD=5.2e-07	PS=5.2e-07
+ scc=2.41797e-14 scb=1.94613e-07 sca=0.621676 sb=1.4e-07 sa=1.4e-07
MI6/I4/avD2_3	I6/avC24	avC64	I6/I4/avC6	VSS
+ nmos1v#20ivpcell#20gpdk045	L=4.5e-08	W=1.2e-07
+ AD=1.92e-14	AS=1.92e-14	PD=5.4e-07	PS=5.4e-07
+ scc=1.54539e-10 scb=1.31482e-05 sca=1.00044 sb=3.45e-07 sa=1.4e-07
MI6/I4/avD2_4	avC61	I6/I4/avC7	I6/avC24	VSS
+ nmos1v#20ivpcell#20gpdk045	L=4.5e-08	W=1.2e-07
+ AD=1.68e-14	AS=1.68e-14	PD=5.4e-07	PS=5.4e-07
+ scc=7.63946e-09 scb=8.37003e-05 sca=1.37797 sb=1.4e-07 sa=3.45e-07
MI6/I45/avD2_1	avC51	avC14	I6/I45/avC10	VSS
+ nmos1v#20ivpcell#20gpdk045	L=4.5e-08	W=1.2e-07
+ AD=1.68e-14	AS=1.68e-14	PD=5.4e-07	PS=5.4e-07
+ scc=2.250184e-20 scb=2.164627e-10 sca=3.825144e-01 sb=1.4e-07 sa=3.45e-07
MI6/I45/avD2_2	I6/I45/avC10	I6/I45/avC12	VSS	VSS
+ nmos1v#20ivpcell#20gpdk045	L=4.5e-08	W=1.2e-07
+ AD=1.92e-14	AS=1.92e-14	PD=5.4e-07	PS=5.4e-07
+ scc=2.250171e-20 scb=2.159469e-10 sca=3.676669e-01 sb=3.45e-07 sa=1.4e-07
MI6/I45/avD2_3	I6/I45/avC12	avC5	I6/I45/avC9	VSS
+ nmos1v#20ivpcell#20gpdk045	L=4.5e-08	W=1.2e-07
+ AD=1.68e-14	AS=1.68e-14	PD=5.4e-07	PS=5.4e-07
+ scc=2.250171e-20 scb=2.158658e-10 sca=3.446662e-01 sb=1.4e-07 sa=3.45e-07
MI6/I45/avD2_4	I6/I45/avC9	I6/I45/avC11	VSS	VSS
+ nmos1v#20ivpcell#20gpdk045	L=4.5e-08	W=1.2e-07
+ AD=1.92e-14	AS=1.92e-14	PD=5.4e-07	PS=5.4e-07
+ scc=2.250171e-20 scb=2.158645e-10 sca=3.362553e-01 sb=3.45e-07 sa=1.4e-07
MI6/I45/avD2_5	I6/avC25	rst_b	I6/I45/avC11	VSS
+ nmos1v#20ivpcell#20gpdk045	L=4.5e-08	W=1.2e-07
+ AD=1.68e-14	AS=1.68e-14	PD=5.4e-07	PS=5.4e-07
+ scc=3.395421e-06 scb=1.365711e-03 sca=2.848668e+00 sb=1.4e-07 sa=3.45e-07
MI6/I45/avD2_6	I6/I45/avC11	rst	rst	VSS
+ nmos1v#20ivpcell#20gpdk045	L=4.5e-08	W=1.2e-07
+ AD=1.92e-14	AS=1.92e-14	PD=5.4e-07	PS=5.4e-07
+ scc=3.395421e-06 scb=1.365711e-03 sca=2.836755e+00 sb=3.45e-07 sa=1.4e-07
MI6/I44/avD2_1	avC50	avC14	I6/I44/avC10	VSS
+ nmos1v#20ivpcell#20gpdk045	L=4.5e-08	W=1.2e-07
+ AD=1.68e-14	AS=1.68e-14	PD=5.4e-07	PS=5.4e-07
+ scc=2.250171e-20 scb=2.158645e-10 sca=3.220488e-01 sb=1.4e-07 sa=3.45e-07
MI6/I44/avD2_2	I6/I44/avC10	I6/I44/avC12	VSS	VSS
+ nmos1v#20ivpcell#20gpdk045	L=4.5e-08	W=1.2e-07
+ AD=1.92e-14	AS=1.92e-14	PD=5.4e-07	PS=5.4e-07
+ scc=2.250171e-20 scb=2.158645e-10 sca=3.169039e-01 sb=3.45e-07 sa=1.4e-07
MI6/I44/avD2_3	I6/I44/avC12	avC5	I6/I44/avC9	VSS
+ nmos1v#20ivpcell#20gpdk045	L=4.5e-08	W=1.2e-07
+ AD=1.68e-14	AS=1.68e-14	PD=5.4e-07	PS=5.4e-07
+ scc=2.250171e-20 scb=2.158645e-10 sca=3.082472e-01 sb=1.4e-07 sa=3.45e-07
MI6/I44/avD2_4	I6/I44/avC9	I6/I44/avC11	VSS	VSS
+ nmos1v#20ivpcell#20gpdk045	L=4.5e-08	W=1.2e-07
+ AD=1.92e-14	AS=1.92e-14	PD=5.4e-07	PS=5.4e-07
+ scc=2.250171e-20 scb=2.158645e-10 sca=3.050685e-01 sb=3.45e-07 sa=1.4e-07
MI6/I44/avD2_5	avC51	rst_b	I6/I44/avC11	VSS
+ nmos1v#20ivpcell#20gpdk045	L=4.5e-08	W=1.2e-07
+ AD=1.68e-14	AS=1.68e-14	PD=5.4e-07	PS=5.4e-07
+ scc=3.395421e-06 scb=1.365711e-03 sca=2.798941e+00 sb=1.4e-07 sa=3.45e-07
MI6/I44/avD2_6	I6/I44/avC11	rst	rst	VSS
+ nmos1v#20ivpcell#20gpdk045	L=4.5e-08	W=1.2e-07
+ AD=1.92e-14	AS=1.92e-14	PD=5.4e-07	PS=5.4e-07
+ scc=3.395421e-06 scb=1.365711e-03 sca=2.794541e+00 sb=3.45e-07 sa=1.4e-07
MI6/I43/avD2_1	avC49	avC14	I6/I43/avC10	VSS
+ nmos1v#20ivpcell#20gpdk045	L=4.5e-08	W=1.2e-07
+ AD=1.68e-14	AS=1.68e-14	PD=5.4e-07	PS=5.4e-07
+ scc=2.250171e-20 scb=2.158645e-10 sca=3.050685e-01 sb=1.4e-07 sa=3.45e-07
MI6/I43/avD2_2	I6/I43/avC10	I6/I43/avC12	VSS	VSS
+ nmos1v#20ivpcell#20gpdk045	L=4.5e-08	W=1.2e-07
+ AD=1.92e-14	AS=1.92e-14	PD=5.4e-07	PS=5.4e-07
+ scc=2.250171e-20 scb=2.158645e-10 sca=3.050685e-01 sb=3.45e-07 sa=1.4e-07
MI6/I43/avD2_3	I6/I43/avC12	avC5	I6/I43/avC9	VSS
+ nmos1v#20ivpcell#20gpdk045	L=4.5e-08	W=1.2e-07
+ AD=1.68e-14	AS=1.68e-14	PD=5.4e-07	PS=5.4e-07
+ scc=2.250171e-20 scb=2.158645e-10 sca=3.050685e-01 sb=1.4e-07 sa=3.45e-07
MI6/I43/avD2_4	I6/I43/avC9	I6/I43/avC11	VSS	VSS
+ nmos1v#20ivpcell#20gpdk045	L=4.5e-08	W=1.2e-07
+ AD=1.92e-14	AS=1.92e-14	PD=5.4e-07	PS=5.4e-07
+ scc=2.250171e-20 scb=2.158645e-10 sca=3.050685e-01 sb=3.45e-07 sa=1.4e-07
MI6/I43/avD2_5	avC50	rst_b	I6/I43/avC11	VSS
+ nmos1v#20ivpcell#20gpdk045	L=4.5e-08	W=1.2e-07
+ AD=1.68e-14	AS=1.68e-14	PD=5.4e-07	PS=5.4e-07
+ scc=3.395421e-06 scb=1.365711e-03 sca=2.787685e+00 sb=1.4e-07 sa=3.45e-07
MI6/I43/avD2_6	I6/I43/avC11	rst	rst	VSS
+ nmos1v#20ivpcell#20gpdk045	L=4.5e-08	W=1.2e-07
+ AD=1.92e-14	AS=1.92e-14	PD=5.4e-07	PS=5.4e-07
+ scc=3.395421e-06 scb=1.365711e-03 sca=2.787685e+00 sb=3.45e-07 sa=1.4e-07
MI6/I42/avD2_1	avC53	avC14	I6/I42/avC10	VSS
+ nmos1v#20ivpcell#20gpdk045	L=4.5e-08	W=1.2e-07
+ AD=1.68e-14	AS=1.68e-14	PD=5.4e-07	PS=5.4e-07
+ scc=2.250171e-20 scb=2.158645e-10 sca=3.050685e-01 sb=1.4e-07 sa=3.45e-07
MI6/I42/avD2_2	I6/I42/avC10	I6/I42/avC12	VSS	VSS
+ nmos1v#20ivpcell#20gpdk045	L=4.5e-08	W=1.2e-07
+ AD=1.92e-14	AS=1.92e-14	PD=5.4e-07	PS=5.4e-07
+ scc=2.250171e-20 scb=2.158645e-10 sca=3.050685e-01 sb=3.45e-07 sa=1.4e-07
MI6/I42/avD2_3	I6/I42/avC12	avC5	I6/I42/avC9	VSS
+ nmos1v#20ivpcell#20gpdk045	L=4.5e-08	W=1.2e-07
+ AD=1.68e-14	AS=1.68e-14	PD=5.4e-07	PS=5.4e-07
+ scc=2.250171e-20 scb=2.158645e-10 sca=3.050685e-01 sb=1.4e-07 sa=3.45e-07
MI6/I42/avD2_4	I6/I42/avC9	I6/I42/avC11	VSS	VSS
+ nmos1v#20ivpcell#20gpdk045	L=4.5e-08	W=1.2e-07
+ AD=1.92e-14	AS=1.92e-14	PD=5.4e-07	PS=5.4e-07
+ scc=2.250171e-20 scb=2.158645e-10 sca=3.050685e-01 sb=3.45e-07 sa=1.4e-07
MI6/I42/avD2_5	avC49	rst_b	I6/I42/avC11	VSS
+ nmos1v#20ivpcell#20gpdk045	L=4.5e-08	W=1.2e-07
+ AD=1.68e-14	AS=1.68e-14	PD=5.4e-07	PS=5.4e-07
+ scc=3.395421e-06 scb=1.365711e-03 sca=2.787685e+00 sb=1.4e-07 sa=3.45e-07
MI6/I42/avD2_6	I6/I42/avC11	rst	rst	VSS
+ nmos1v#20ivpcell#20gpdk045	L=4.5e-08	W=1.2e-07
+ AD=1.92e-14	AS=1.92e-14	PD=5.4e-07	PS=5.4e-07
+ scc=3.395421e-06 scb=1.365711e-03 sca=2.787685e+00 sb=3.45e-07 sa=1.4e-07
MI6/I41/avD2_1	avC52	avC14	I6/I41/avC10	VSS
+ nmos1v#20ivpcell#20gpdk045	L=4.5e-08	W=1.2e-07
+ AD=1.68e-14	AS=1.68e-14	PD=5.4e-07	PS=5.4e-07
+ scc=2.250171e-20 scb=2.158645e-10 sca=3.050685e-01 sb=1.4e-07 sa=3.45e-07
MI6/I41/avD2_2	I6/I41/avC10	I6/I41/avC12	VSS	VSS
+ nmos1v#20ivpcell#20gpdk045	L=4.5e-08	W=1.2e-07
+ AD=1.92e-14	AS=1.92e-14	PD=5.4e-07	PS=5.4e-07
+ scc=2.250171e-20 scb=2.158645e-10 sca=3.050685e-01 sb=3.45e-07 sa=1.4e-07
MI6/I41/avD2_3	I6/I41/avC12	avC5	I6/I41/avC9	VSS
+ nmos1v#20ivpcell#20gpdk045	L=4.5e-08	W=1.2e-07
+ AD=1.68e-14	AS=1.68e-14	PD=5.4e-07	PS=5.4e-07
+ scc=2.250171e-20 scb=2.158645e-10 sca=3.050685e-01 sb=1.4e-07 sa=3.45e-07
MI6/I41/avD2_4	I6/I41/avC9	I6/I41/avC11	VSS	VSS
+ nmos1v#20ivpcell#20gpdk045	L=4.5e-08	W=1.2e-07
+ AD=1.92e-14	AS=1.92e-14	PD=5.4e-07	PS=5.4e-07
+ scc=2.250171e-20 scb=2.158645e-10 sca=3.050685e-01 sb=3.45e-07 sa=1.4e-07
MI6/I41/avD2_5	avC53	rst_b	I6/I41/avC11	VSS
+ nmos1v#20ivpcell#20gpdk045	L=4.5e-08	W=1.2e-07
+ AD=1.68e-14	AS=1.68e-14	PD=5.4e-07	PS=5.4e-07
+ scc=3.395421e-06 scb=1.365711e-03 sca=2.787685e+00 sb=1.4e-07 sa=3.45e-07
MI6/I41/avD2_6	I6/I41/avC11	rst	rst	VSS
+ nmos1v#20ivpcell#20gpdk045	L=4.5e-08	W=1.2e-07
+ AD=1.92e-14	AS=1.92e-14	PD=5.4e-07	PS=5.4e-07
+ scc=3.395421e-06 scb=1.365711e-03 sca=2.787685e+00 sb=3.45e-07 sa=1.4e-07
MI6/I40/avD2_1	avC55	avC14	I6/I40/avC10	VSS
+ nmos1v#20ivpcell#20gpdk045	L=4.5e-08	W=1.2e-07
+ AD=1.68e-14	AS=1.68e-14	PD=5.4e-07	PS=5.4e-07
+ scc=2.250171e-20 scb=2.158645e-10 sca=3.050685e-01 sb=1.4e-07 sa=3.45e-07
MI6/I40/avD2_2	I6/I40/avC10	I6/I40/avC12	VSS	VSS
+ nmos1v#20ivpcell#20gpdk045	L=4.5e-08	W=1.2e-07
+ AD=1.92e-14	AS=1.92e-14	PD=5.4e-07	PS=5.4e-07
+ scc=2.250171e-20 scb=2.158645e-10 sca=3.050685e-01 sb=3.45e-07 sa=1.4e-07
MI6/I40/avD2_3	I6/I40/avC12	avC5	I6/I40/avC9	VSS
+ nmos1v#20ivpcell#20gpdk045	L=4.5e-08	W=1.2e-07
+ AD=1.68e-14	AS=1.68e-14	PD=5.4e-07	PS=5.4e-07
+ scc=2.250171e-20 scb=2.158645e-10 sca=3.050685e-01 sb=1.4e-07 sa=3.45e-07
MI6/I40/avD2_4	I6/I40/avC9	I6/I40/avC11	VSS	VSS
+ nmos1v#20ivpcell#20gpdk045	L=4.5e-08	W=1.2e-07
+ AD=1.92e-14	AS=1.92e-14	PD=5.4e-07	PS=5.4e-07
+ scc=2.250171e-20 scb=2.158645e-10 sca=3.050685e-01 sb=3.45e-07 sa=1.4e-07
MI6/I40/avD2_5	avC52	rst_b	I6/I40/avC11	VSS
+ nmos1v#20ivpcell#20gpdk045	L=4.5e-08	W=1.2e-07
+ AD=1.68e-14	AS=1.68e-14	PD=5.4e-07	PS=5.4e-07
+ scc=3.395421e-06 scb=1.365711e-03 sca=2.787685e+00 sb=1.4e-07 sa=3.45e-07
MI6/I40/avD2_6	I6/I40/avC11	rst	rst	VSS
+ nmos1v#20ivpcell#20gpdk045	L=4.5e-08	W=1.2e-07
+ AD=1.92e-14	AS=1.92e-14	PD=5.4e-07	PS=5.4e-07
+ scc=3.395421e-06 scb=1.365711e-03 sca=2.787685e+00 sb=3.45e-07 sa=1.4e-07
MI6/I39/avD2_1	avC54	avC14	I6/I39/avC10	VSS
+ nmos1v#20ivpcell#20gpdk045	L=4.5e-08	W=1.2e-07
+ AD=1.68e-14	AS=1.68e-14	PD=5.4e-07	PS=5.4e-07
+ scc=2.250171e-20 scb=2.158645e-10 sca=3.050685e-01 sb=1.4e-07 sa=3.45e-07
MI6/I39/avD2_2	I6/I39/avC10	I6/I39/avC12	VSS	VSS
+ nmos1v#20ivpcell#20gpdk045	L=4.5e-08	W=1.2e-07
+ AD=1.92e-14	AS=1.92e-14	PD=5.4e-07	PS=5.4e-07
+ scc=2.250171e-20 scb=2.158645e-10 sca=3.050685e-01 sb=3.45e-07 sa=1.4e-07
MI6/I39/avD2_3	I6/I39/avC12	avC5	I6/I39/avC9	VSS
+ nmos1v#20ivpcell#20gpdk045	L=4.5e-08	W=1.2e-07
+ AD=1.68e-14	AS=1.68e-14	PD=5.4e-07	PS=5.4e-07
+ scc=2.250171e-20 scb=2.158645e-10 sca=3.050685e-01 sb=1.4e-07 sa=3.45e-07
MI6/I39/avD2_4	I6/I39/avC9	I6/I39/avC11	VSS	VSS
+ nmos1v#20ivpcell#20gpdk045	L=4.5e-08	W=1.2e-07
+ AD=1.92e-14	AS=1.92e-14	PD=5.4e-07	PS=5.4e-07
+ scc=2.250171e-20 scb=2.158645e-10 sca=3.050685e-01 sb=3.45e-07 sa=1.4e-07
MI6/I39/avD2_5	avC55	rst_b	I6/I39/avC11	VSS
+ nmos1v#20ivpcell#20gpdk045	L=4.5e-08	W=1.2e-07
+ AD=1.68e-14	AS=1.68e-14	PD=5.4e-07	PS=5.4e-07
+ scc=3.395421e-06 scb=1.365711e-03 sca=2.787685e+00 sb=1.4e-07 sa=3.45e-07
MI6/I39/avD2_6	I6/I39/avC11	rst	rst	VSS
+ nmos1v#20ivpcell#20gpdk045	L=4.5e-08	W=1.2e-07
+ AD=1.92e-14	AS=1.92e-14	PD=5.4e-07	PS=5.4e-07
+ scc=3.395421e-06 scb=1.365711e-03 sca=2.787685e+00 sb=3.45e-07 sa=1.4e-07
MI6/I38/avD2_1	avC58	avC14	I6/I38/avC10	VSS
+ nmos1v#20ivpcell#20gpdk045	L=4.5e-08	W=1.2e-07
+ AD=1.68e-14	AS=1.68e-14	PD=5.4e-07	PS=5.4e-07
+ scc=2.250171e-20 scb=2.158645e-10 sca=3.050685e-01 sb=1.4e-07 sa=3.45e-07
MI6/I38/avD2_2	I6/I38/avC10	I6/I38/avC12	VSS	VSS
+ nmos1v#20ivpcell#20gpdk045	L=4.5e-08	W=1.2e-07
+ AD=1.92e-14	AS=1.92e-14	PD=5.4e-07	PS=5.4e-07
+ scc=2.250171e-20 scb=2.158645e-10 sca=3.050685e-01 sb=3.45e-07 sa=1.4e-07
MI6/I38/avD2_3	I6/I38/avC12	avC5	I6/I38/avC9	VSS
+ nmos1v#20ivpcell#20gpdk045	L=4.5e-08	W=1.2e-07
+ AD=1.68e-14	AS=1.68e-14	PD=5.4e-07	PS=5.4e-07
+ scc=2.250171e-20 scb=2.158645e-10 sca=3.050685e-01 sb=1.4e-07 sa=3.45e-07
MI6/I38/avD2_4	I6/I38/avC9	I6/I38/avC11	VSS	VSS
+ nmos1v#20ivpcell#20gpdk045	L=4.5e-08	W=1.2e-07
+ AD=1.92e-14	AS=1.92e-14	PD=5.4e-07	PS=5.4e-07
+ scc=2.250171e-20 scb=2.158645e-10 sca=3.050685e-01 sb=3.45e-07 sa=1.4e-07
MI6/I38/avD2_5	avC54	rst_b	I6/I38/avC11	VSS
+ nmos1v#20ivpcell#20gpdk045	L=4.5e-08	W=1.2e-07
+ AD=1.68e-14	AS=1.68e-14	PD=5.4e-07	PS=5.4e-07
+ scc=3.395421e-06 scb=1.365711e-03 sca=2.787685e+00 sb=1.4e-07 sa=3.45e-07
MI6/I38/avD2_6	I6/I38/avC11	rst	rst	VSS
+ nmos1v#20ivpcell#20gpdk045	L=4.5e-08	W=1.2e-07
+ AD=1.92e-14	AS=1.92e-14	PD=5.4e-07	PS=5.4e-07
+ scc=3.395421e-06 scb=1.365711e-03 sca=2.787685e+00 sb=3.45e-07 sa=1.4e-07
MI6/I37/avD2_1	avC57	avC14	I6/I37/avC10	VSS
+ nmos1v#20ivpcell#20gpdk045	L=4.5e-08	W=1.2e-07
+ AD=1.68e-14	AS=1.68e-14	PD=5.4e-07	PS=5.4e-07
+ scc=2.250171e-20 scb=2.158645e-10 sca=3.050685e-01 sb=1.4e-07 sa=3.45e-07
MI6/I37/avD2_2	I6/I37/avC10	I6/I37/avC12	VSS	VSS
+ nmos1v#20ivpcell#20gpdk045	L=4.5e-08	W=1.2e-07
+ AD=1.92e-14	AS=1.92e-14	PD=5.4e-07	PS=5.4e-07
+ scc=2.250171e-20 scb=2.158645e-10 sca=3.050685e-01 sb=3.45e-07 sa=1.4e-07
MI6/I37/avD2_3	I6/I37/avC12	avC5	I6/I37/avC9	VSS
+ nmos1v#20ivpcell#20gpdk045	L=4.5e-08	W=1.2e-07
+ AD=1.68e-14	AS=1.68e-14	PD=5.4e-07	PS=5.4e-07
+ scc=2.250171e-20 scb=2.158645e-10 sca=3.050685e-01 sb=1.4e-07 sa=3.45e-07
MI6/I37/avD2_4	I6/I37/avC9	I6/I37/avC11	VSS	VSS
+ nmos1v#20ivpcell#20gpdk045	L=4.5e-08	W=1.2e-07
+ AD=1.92e-14	AS=1.92e-14	PD=5.4e-07	PS=5.4e-07
+ scc=2.250171e-20 scb=2.158645e-10 sca=3.050685e-01 sb=3.45e-07 sa=1.4e-07
MI6/I37/avD2_5	avC58	rst_b	I6/I37/avC11	VSS
+ nmos1v#20ivpcell#20gpdk045	L=4.5e-08	W=1.2e-07
+ AD=1.68e-14	AS=1.68e-14	PD=5.4e-07	PS=5.4e-07
+ scc=3.395421e-06 scb=1.365711e-03 sca=2.787685e+00 sb=1.4e-07 sa=3.45e-07
MI6/I37/avD2_6	I6/I37/avC11	rst	rst	VSS
+ nmos1v#20ivpcell#20gpdk045	L=4.5e-08	W=1.2e-07
+ AD=1.92e-14	AS=1.92e-14	PD=5.4e-07	PS=5.4e-07
+ scc=3.395421e-06 scb=1.365711e-03 sca=2.787685e+00 sb=3.45e-07 sa=1.4e-07
MI6/I36/avD2_1	avC56	avC14	I6/I36/avC10	VSS
+ nmos1v#20ivpcell#20gpdk045	L=4.5e-08	W=1.2e-07
+ AD=1.68e-14	AS=1.68e-14	PD=5.4e-07	PS=5.4e-07
+ scc=2.250171e-20 scb=2.158645e-10 sca=3.050685e-01 sb=1.4e-07 sa=3.45e-07
MI6/I36/avD2_2	I6/I36/avC10	I6/I36/avC12	VSS	VSS
+ nmos1v#20ivpcell#20gpdk045	L=4.5e-08	W=1.2e-07
+ AD=1.92e-14	AS=1.92e-14	PD=5.4e-07	PS=5.4e-07
+ scc=2.250171e-20 scb=2.158645e-10 sca=3.050685e-01 sb=3.45e-07 sa=1.4e-07
MI6/I36/avD2_3	I6/I36/avC12	avC5	I6/I36/avC9	VSS
+ nmos1v#20ivpcell#20gpdk045	L=4.5e-08	W=1.2e-07
+ AD=1.68e-14	AS=1.68e-14	PD=5.4e-07	PS=5.4e-07
+ scc=2.250171e-20 scb=2.158645e-10 sca=3.050685e-01 sb=1.4e-07 sa=3.45e-07
MI6/I36/avD2_4	I6/I36/avC9	I6/I36/avC11	VSS	VSS
+ nmos1v#20ivpcell#20gpdk045	L=4.5e-08	W=1.2e-07
+ AD=1.92e-14	AS=1.92e-14	PD=5.4e-07	PS=5.4e-07
+ scc=2.250171e-20 scb=2.158645e-10 sca=3.050685e-01 sb=3.45e-07 sa=1.4e-07
MI6/I36/avD2_5	avC57	rst_b	I6/I36/avC11	VSS
+ nmos1v#20ivpcell#20gpdk045	L=4.5e-08	W=1.2e-07
+ AD=1.68e-14	AS=1.68e-14	PD=5.4e-07	PS=5.4e-07
+ scc=3.395421e-06 scb=1.365711e-03 sca=2.787685e+00 sb=1.4e-07 sa=3.45e-07
MI6/I36/avD2_6	I6/I36/avC11	rst	rst	VSS
+ nmos1v#20ivpcell#20gpdk045	L=4.5e-08	W=1.2e-07
+ AD=1.92e-14	AS=1.92e-14	PD=5.4e-07	PS=5.4e-07
+ scc=3.395421e-06 scb=1.365711e-03 sca=2.787685e+00 sb=3.45e-07 sa=1.4e-07
MI6/I35/avD2_1	avC60	avC14	I6/I35/avC10	VSS
+ nmos1v#20ivpcell#20gpdk045	L=4.5e-08	W=1.2e-07
+ AD=1.68e-14	AS=1.68e-14	PD=5.4e-07	PS=5.4e-07
+ scc=2.250171e-20 scb=2.158645e-10 sca=3.050685e-01 sb=1.4e-07 sa=3.45e-07
MI6/I35/avD2_2	I6/I35/avC10	I6/I35/avC12	VSS	VSS
+ nmos1v#20ivpcell#20gpdk045	L=4.5e-08	W=1.2e-07
+ AD=1.92e-14	AS=1.92e-14	PD=5.4e-07	PS=5.4e-07
+ scc=2.250171e-20 scb=2.158645e-10 sca=3.050685e-01 sb=3.45e-07 sa=1.4e-07
MI6/I35/avD2_3	I6/I35/avC12	avC5	I6/I35/avC9	VSS
+ nmos1v#20ivpcell#20gpdk045	L=4.5e-08	W=1.2e-07
+ AD=1.68e-14	AS=1.68e-14	PD=5.4e-07	PS=5.4e-07
+ scc=2.250171e-20 scb=2.158645e-10 sca=3.050685e-01 sb=1.4e-07 sa=3.45e-07
MI6/I35/avD2_4	I6/I35/avC9	I6/I35/avC11	VSS	VSS
+ nmos1v#20ivpcell#20gpdk045	L=4.5e-08	W=1.2e-07
+ AD=1.92e-14	AS=1.92e-14	PD=5.4e-07	PS=5.4e-07
+ scc=2.250171e-20 scb=2.158645e-10 sca=3.050685e-01 sb=3.45e-07 sa=1.4e-07
MI6/I35/avD2_5	avC56	rst_b	I6/I35/avC11	VSS
+ nmos1v#20ivpcell#20gpdk045	L=4.5e-08	W=1.2e-07
+ AD=1.68e-14	AS=1.68e-14	PD=5.4e-07	PS=5.4e-07
+ scc=3.395421e-06 scb=1.365711e-03 sca=2.787685e+00 sb=1.4e-07 sa=3.45e-07
MI6/I35/avD2_6	I6/I35/avC11	rst	rst	VSS
+ nmos1v#20ivpcell#20gpdk045	L=4.5e-08	W=1.2e-07
+ AD=1.92e-14	AS=1.92e-14	PD=5.4e-07	PS=5.4e-07
+ scc=3.395421e-06 scb=1.365711e-03 sca=2.787685e+00 sb=3.45e-07 sa=1.4e-07
MI6/I34/avD2_1	avC59	avC14	I6/I34/avC10	VSS
+ nmos1v#20ivpcell#20gpdk045	L=4.5e-08	W=1.2e-07
+ AD=1.68e-14	AS=1.68e-14	PD=5.4e-07	PS=5.4e-07
+ scc=2.250171e-20 scb=2.158645e-10 sca=3.050685e-01 sb=1.4e-07 sa=3.45e-07
MI6/I34/avD2_2	I6/I34/avC10	I6/I34/avC12	VSS	VSS
+ nmos1v#20ivpcell#20gpdk045	L=4.5e-08	W=1.2e-07
+ AD=1.92e-14	AS=1.92e-14	PD=5.4e-07	PS=5.4e-07
+ scc=2.250171e-20 scb=2.158645e-10 sca=3.050685e-01 sb=3.45e-07 sa=1.4e-07
MI6/I34/avD2_3	I6/I34/avC12	avC5	I6/I34/avC9	VSS
+ nmos1v#20ivpcell#20gpdk045	L=4.5e-08	W=1.2e-07
+ AD=1.68e-14	AS=1.68e-14	PD=5.4e-07	PS=5.4e-07
+ scc=2.250171e-20 scb=2.158645e-10 sca=3.050685e-01 sb=1.4e-07 sa=3.45e-07
MI6/I34/avD2_4	I6/I34/avC9	I6/I34/avC11	VSS	VSS
+ nmos1v#20ivpcell#20gpdk045	L=4.5e-08	W=1.2e-07
+ AD=1.92e-14	AS=1.92e-14	PD=5.4e-07	PS=5.4e-07
+ scc=2.250171e-20 scb=2.158645e-10 sca=3.050685e-01 sb=3.45e-07 sa=1.4e-07
MI6/I34/avD2_5	avC60	rst_b	I6/I34/avC11	VSS
+ nmos1v#20ivpcell#20gpdk045	L=4.5e-08	W=1.2e-07
+ AD=1.68e-14	AS=1.68e-14	PD=5.4e-07	PS=5.4e-07
+ scc=3.395421e-06 scb=1.365711e-03 sca=2.787685e+00 sb=1.4e-07 sa=3.45e-07
MI6/I34/avD2_6	I6/I34/avC11	rst	rst	VSS
+ nmos1v#20ivpcell#20gpdk045	L=4.5e-08	W=1.2e-07
+ AD=1.92e-14	AS=1.92e-14	PD=5.4e-07	PS=5.4e-07
+ scc=3.395421e-06 scb=1.365711e-03 sca=2.787685e+00 sb=3.45e-07 sa=1.4e-07
MI6/I33/avD2_1	avC63	avC14	I6/I33/avC10	VSS
+ nmos1v#20ivpcell#20gpdk045	L=4.5e-08	W=1.2e-07
+ AD=1.68e-14	AS=1.68e-14	PD=5.4e-07	PS=5.4e-07
+ scc=2.250171e-20 scb=2.158645e-10 sca=3.050685e-01 sb=1.4e-07 sa=3.45e-07
MI6/I33/avD2_2	I6/I33/avC10	I6/I33/avC12	VSS	VSS
+ nmos1v#20ivpcell#20gpdk045	L=4.5e-08	W=1.2e-07
+ AD=1.92e-14	AS=1.92e-14	PD=5.4e-07	PS=5.4e-07
+ scc=2.250171e-20 scb=2.158645e-10 sca=3.050685e-01 sb=3.45e-07 sa=1.4e-07
MI6/I33/avD2_3	I6/I33/avC12	avC5	I6/I33/avC9	VSS
+ nmos1v#20ivpcell#20gpdk045	L=4.5e-08	W=1.2e-07
+ AD=1.68e-14	AS=1.68e-14	PD=5.4e-07	PS=5.4e-07
+ scc=2.250171e-20 scb=2.158645e-10 sca=3.050685e-01 sb=1.4e-07 sa=3.45e-07
MI6/I33/avD2_4	I6/I33/avC9	I6/I33/avC11	VSS	VSS
+ nmos1v#20ivpcell#20gpdk045	L=4.5e-08	W=1.2e-07
+ AD=1.92e-14	AS=1.92e-14	PD=5.4e-07	PS=5.4e-07
+ scc=2.250171e-20 scb=2.158645e-10 sca=3.050685e-01 sb=3.45e-07 sa=1.4e-07
MI6/I33/avD2_5	avC59	rst_b	I6/I33/avC11	VSS
+ nmos1v#20ivpcell#20gpdk045	L=4.5e-08	W=1.2e-07
+ AD=1.68e-14	AS=1.68e-14	PD=5.4e-07	PS=5.4e-07
+ scc=3.395421e-06 scb=1.365711e-03 sca=2.787685e+00 sb=1.4e-07 sa=3.45e-07
MI6/I33/avD2_6	I6/I33/avC11	rst	rst	VSS
+ nmos1v#20ivpcell#20gpdk045	L=4.5e-08	W=1.2e-07
+ AD=1.92e-14	AS=1.92e-14	PD=5.4e-07	PS=5.4e-07
+ scc=3.395421e-06 scb=1.365711e-03 sca=2.787685e+00 sb=3.45e-07 sa=1.4e-07
MI6/I32/avD2_1	avC62	avC14	I6/I32/avC10	VSS
+ nmos1v#20ivpcell#20gpdk045	L=4.5e-08	W=1.2e-07
+ AD=1.68e-14	AS=1.68e-14	PD=5.4e-07	PS=5.4e-07
+ scc=2.250171e-20 scb=2.158645e-10 sca=3.050685e-01 sb=1.4e-07 sa=3.45e-07
MI6/I32/avD2_2	I6/I32/avC10	I6/I32/avC12	VSS	VSS
+ nmos1v#20ivpcell#20gpdk045	L=4.5e-08	W=1.2e-07
+ AD=1.92e-14	AS=1.92e-14	PD=5.4e-07	PS=5.4e-07
+ scc=2.250171e-20 scb=2.158645e-10 sca=3.050685e-01 sb=3.45e-07 sa=1.4e-07
MI6/I32/avD2_3	I6/I32/avC12	avC5	I6/I32/avC9	VSS
+ nmos1v#20ivpcell#20gpdk045	L=4.5e-08	W=1.2e-07
+ AD=1.68e-14	AS=1.68e-14	PD=5.4e-07	PS=5.4e-07
+ scc=2.250171e-20 scb=2.158645e-10 sca=3.050685e-01 sb=1.4e-07 sa=3.45e-07
MI6/I32/avD2_4	I6/I32/avC9	I6/I32/avC11	VSS	VSS
+ nmos1v#20ivpcell#20gpdk045	L=4.5e-08	W=1.2e-07
+ AD=1.92e-14	AS=1.92e-14	PD=5.4e-07	PS=5.4e-07
+ scc=2.250171e-20 scb=2.158645e-10 sca=3.050685e-01 sb=3.45e-07 sa=1.4e-07
MI6/I32/avD2_5	avC63	rst_b	I6/I32/avC11	VSS
+ nmos1v#20ivpcell#20gpdk045	L=4.5e-08	W=1.2e-07
+ AD=1.68e-14	AS=1.68e-14	PD=5.4e-07	PS=5.4e-07
+ scc=3.395421e-06 scb=1.365711e-03 sca=2.787685e+00 sb=1.4e-07 sa=3.45e-07
MI6/I32/avD2_6	I6/I32/avC11	rst	rst	VSS
+ nmos1v#20ivpcell#20gpdk045	L=4.5e-08	W=1.2e-07
+ AD=1.92e-14	AS=1.92e-14	PD=5.4e-07	PS=5.4e-07
+ scc=3.395421e-06 scb=1.365711e-03 sca=2.787685e+00 sb=3.45e-07 sa=1.4e-07
MI6/I31/avD2_1	avC61	avC14	I6/I31/avC10	VSS
+ nmos1v#20ivpcell#20gpdk045	L=4.5e-08	W=1.2e-07
+ AD=1.68e-14	AS=1.68e-14	PD=5.4e-07	PS=5.4e-07
+ scc=2.250171e-20 scb=2.158645e-10 sca=3.050685e-01 sb=1.4e-07 sa=3.45e-07
MI6/I31/avD2_2	I6/I31/avC10	I6/I31/avC12	VSS	VSS
+ nmos1v#20ivpcell#20gpdk045	L=4.5e-08	W=1.2e-07
+ AD=1.92e-14	AS=1.92e-14	PD=5.4e-07	PS=5.4e-07
+ scc=2.250171e-20 scb=2.158645e-10 sca=3.050685e-01 sb=3.45e-07 sa=1.4e-07
MI6/I31/avD2_3	I6/I31/avC12	avC5	I6/I31/avC9	VSS
+ nmos1v#20ivpcell#20gpdk045	L=4.5e-08	W=1.2e-07
+ AD=1.68e-14	AS=1.68e-14	PD=5.4e-07	PS=5.4e-07
+ scc=2.250171e-20 scb=2.158645e-10 sca=3.050685e-01 sb=1.4e-07 sa=3.45e-07
MI6/I31/avD2_4	I6/I31/avC9	I6/I31/avC11	VSS	VSS
+ nmos1v#20ivpcell#20gpdk045	L=4.5e-08	W=1.2e-07
+ AD=1.92e-14	AS=1.92e-14	PD=5.4e-07	PS=5.4e-07
+ scc=2.250171e-20 scb=2.158645e-10 sca=3.050685e-01 sb=3.45e-07 sa=1.4e-07
MI6/I31/avD2_5	avC62	rst_b	I6/I31/avC11	VSS
+ nmos1v#20ivpcell#20gpdk045	L=4.5e-08	W=1.2e-07
+ AD=1.68e-14	AS=1.68e-14	PD=5.4e-07	PS=5.4e-07
+ scc=3.395421e-06 scb=1.365711e-03 sca=2.787685e+00 sb=1.4e-07 sa=3.45e-07
MI6/I31/avD2_6	I6/I31/avC11	rst	rst	VSS
+ nmos1v#20ivpcell#20gpdk045	L=4.5e-08	W=1.2e-07
+ AD=1.92e-14	AS=1.92e-14	PD=5.4e-07	PS=5.4e-07
+ scc=3.395421e-06 scb=1.365711e-03 sca=2.787685e+00 sb=3.45e-07 sa=1.4e-07
MI6/I1/avD2_1	avC64	avC14	I6/I1/avC10	VSS
+ nmos1v#20ivpcell#20gpdk045	L=4.5e-08	W=1.2e-07
+ AD=1.68e-14	AS=1.68e-14	PD=5.4e-07	PS=5.4e-07
+ scc=2.250171e-20 scb=2.158645e-10 sca=3.117243e-01 sb=1.4e-07 sa=3.45e-07
MI6/I1/avD2_2	I6/I1/avC10	I6/I1/avC12	VSS	VSS
+ nmos1v#20ivpcell#20gpdk045	L=4.5e-08	W=1.2e-07
+ AD=1.92e-14	AS=1.92e-14	PD=5.4e-07	PS=5.4e-07
+ scc=2.250171e-20 scb=2.158645e-10 sca=3.160959e-01 sb=3.45e-07 sa=1.4e-07
MI6/I1/avD2_3	I6/I1/avC12	avC5	I6/I1/avC9	VSS
+ nmos1v#20ivpcell#20gpdk045	L=4.5e-08	W=1.2e-07
+ AD=1.68e-14	AS=1.68e-14	PD=5.4e-07	PS=5.4e-07
+ scc=2.250171e-20 scb=2.158645e-10 sca=3.273839e-01 sb=1.4e-07 sa=3.45e-07
MI6/I1/avD2_4	I6/I1/avC9	I6/I1/avC11	VSS	VSS
+ nmos1v#20ivpcell#20gpdk045	L=4.5e-08	W=1.2e-07
+ AD=1.92e-14	AS=1.92e-14	PD=5.4e-07	PS=5.4e-07
+ scc=2.250171e-20 scb=2.158645e-10 sca=3.342264e-01 sb=3.45e-07 sa=1.4e-07
MI6/I1/avD2_5	avC61	rst_b	I6/I1/avC11	VSS
+ nmos1v#20ivpcell#20gpdk045	L=4.5e-08	W=1.2e-07
+ AD=1.68e-14	AS=1.68e-14	PD=5.4e-07	PS=5.4e-07
+ scc=3.395421e-06 scb=1.365711e-03 sca=2.799287e+00 sb=1.4e-07 sa=3.45e-07
MI6/I1/avD2_6	I6/I1/avC11	rst	rst	VSS
+ nmos1v#20ivpcell#20gpdk045	L=4.5e-08	W=1.2e-07
+ AD=1.92e-14	AS=1.92e-14	PD=5.4e-07	PS=5.4e-07
+ scc=3.395421e-06 scb=1.365711e-03 sca=2.804397e+00 sb=3.45e-07 sa=1.4e-07
MI2/I22/avD2_1	avC5	avC14	VSS	VSS	nmos1v#20ivpcell#20gpdk045
+ L=4.5e-08	W=4.8e-07
+ AD=7.68e-14	AS=7.68e-14	PD=1.28e-06	PS=1.28e-06
+ scc=4.759661e-18 scb=2.003762e-09 sca=3.338175e-01 sb=1.575e-06 sa=1.78e-06
MI2/I22/avD2_2	VSS	avC14	avC5	VSS	nmos1v#20ivpcell#20gpdk045
+ L=4.5e-08	W=4.8e-07
+ AD=7.68e-14	AS=7.68e-14	PD=1.28e-06	PS=1.28e-06
+ scc=4.759661e-18 scb=2.003762e-09 sca=3.338175e-01 sb=1.37e-06 sa=1.985e-06
MI2/I22/avD2_3	avC5	avC14	VSS	VSS	nmos1v#20ivpcell#20gpdk045
+ L=4.5e-08	W=4.8e-07
+ AD=7.68e-14	AS=7.68e-14	PD=1.28e-06	PS=1.28e-06
+ scc=4.759661e-18 scb=2.003762e-09 sca=3.338175e-01 sb=1.165e-06 sa=2.19e-06
MI2/I22/avD2_4	VSS	avC14	avC5	VSS	nmos1v#20ivpcell#20gpdk045
+ L=4.5e-08	W=4.8e-07
+ AD=7.68e-14	AS=7.68e-14	PD=1.28e-06	PS=1.28e-06
+ scc=4.759661e-18 scb=2.003762e-09 sca=3.338175e-01 sb=9.6e-07 sa=2.395e-06
MI2/I22/avD2_5	avC5	avC14	VSS	VSS	nmos1v#20ivpcell#20gpdk045
+ L=4.5e-08	W=4.8e-07
+ AD=7.68e-14	AS=7.68e-14	PD=1.28e-06	PS=1.28e-06
+ scc=4.759661e-18 scb=2.003762e-09 sca=3.338175e-01 sb=7.55e-07 sa=2.6e-06
MI2/I22/avD2_6	VSS	avC14	avC5	VSS	nmos1v#20ivpcell#20gpdk045
+ L=4.5e-08	W=4.8e-07
+ AD=7.68e-14	AS=7.68e-14	PD=1.28e-06	PS=1.28e-06
+ scc=4.759661e-18 scb=2.003762e-09 sca=3.338175e-01 sb=5.5e-07 sa=2.805e-06
MI2/I22/avD2_7	avC5	avC14	VSS	VSS	nmos1v#20ivpcell#20gpdk045
+ L=4.5e-08	W=4.8e-07
+ AD=7.68e-14	AS=7.68e-14	PD=1.28e-06	PS=1.28e-06
+ scc=4.759661e-18 scb=2.003762e-09 sca=3.338175e-01 sb=3.45e-07 sa=3.01e-06
MI2/I22/avD2_8	VSS	avC14	avC5	VSS	nmos1v#20ivpcell#20gpdk045
+ L=4.5e-08	W=4.8e-07
+ AD=6.72e-14	AS=6.72e-14	PD=1.26e-06	PS=1.26e-06
+ scc=4.759661e-18 scb=2.003762e-09 sca=3.338175e-01 sb=1.4e-07 sa=3.215e-06
MI2/I22/avD2_9	avC5	avC14	VSS	VSS	nmos1v#20ivpcell#20gpdk045
+ L=4.5e-08	W=4.8e-07
+ AD=7.68e-14	AS=7.68e-14	PD=1.26e-06	PS=1.26e-06
+ scc=4.759661e-18 scb=2.003762e-09 sca=3.338175e-01 sb=3.215e-06 sa=1.4e-07
MI2/I22/avD2_10	VSS	avC14	avC5	VSS	nmos1v#20ivpcell#20gpdk045
+ L=4.5e-08	W=4.8e-07
+ AD=7.68e-14	AS=7.68e-14	PD=1.28e-06	PS=1.28e-06
+ scc=4.759661e-18 scb=2.003762e-09 sca=3.338175e-01 sb=3.01e-06 sa=3.45e-07
MI2/I22/avD2_11	avC5	avC14	VSS	VSS	nmos1v#20ivpcell#20gpdk045
+ L=4.5e-08	W=4.8e-07
+ AD=7.68e-14	AS=7.68e-14	PD=1.28e-06	PS=1.28e-06
+ scc=4.759661e-18 scb=2.003762e-09 sca=3.338175e-01 sb=2.805e-06 sa=5.5e-07
MI2/I22/avD2_12	VSS	avC14	avC5	VSS	nmos1v#20ivpcell#20gpdk045
+ L=4.5e-08	W=4.8e-07
+ AD=7.68e-14	AS=7.68e-14	PD=1.28e-06	PS=1.28e-06
+ scc=4.759661e-18 scb=2.003762e-09 sca=3.338175e-01 sb=2.6e-06 sa=7.55e-07
MI2/I22/avD2_13	avC5	avC14	VSS	VSS	nmos1v#20ivpcell#20gpdk045
+ L=4.5e-08	W=4.8e-07
+ AD=7.68e-14	AS=7.68e-14	PD=1.28e-06	PS=1.28e-06
+ scc=4.759661e-18 scb=2.003762e-09 sca=3.338175e-01 sb=2.395e-06 sa=9.6e-07
MI2/I22/avD2_14	VSS	avC14	avC5	VSS	nmos1v#20ivpcell#20gpdk045
+ L=4.5e-08	W=4.8e-07
+ AD=7.68e-14	AS=7.68e-14	PD=1.28e-06	PS=1.28e-06
+ scc=4.759661e-18 scb=2.003762e-09 sca=3.338175e-01 sb=2.19e-06 sa=1.165e-06
MI2/I22/avD2_15	avC5	avC14	VSS	VSS	nmos1v#20ivpcell#20gpdk045
+ L=4.5e-08	W=4.8e-07
+ AD=7.68e-14	AS=7.68e-14	PD=1.28e-06	PS=1.28e-06
+ scc=4.759661e-18 scb=2.003762e-09 sca=3.338175e-01 sb=1.985e-06 sa=1.37e-06
MI2/I22/avD2_16	VSS	avC14	avC5	VSS	nmos1v#20ivpcell#20gpdk045
+ L=4.5e-08	W=4.8e-07
+ AD=7.68e-14	AS=7.68e-14	PD=1.28e-06	PS=1.28e-06
+ scc=4.759661e-18 scb=2.003762e-09 sca=3.338175e-01 sb=1.78e-06 sa=1.575e-06
MI2/I16/avD2_1	I2/avC12	I2/out_xor2_s4f2__avC_8	VSS	VSS
+ nmos1v#20ivpcell#20gpdk045	L=4.5e-08	W=2.4e-07
+ AD=3.84e-14	AS=3.84e-14	PD=7.8e-07	PS=7.8e-07
+ scc=8.711518e-20 scb=3.697870e-10 sca=3.112068e-01 sb=3.45e-07 sa=1.4e-07
MI2/I16/avD2_2	VSS	I2/out_xor2_s4f2__avC_8	I2/avC12	VSS
+ nmos1v#20ivpcell#20gpdk045	L=4.5e-08	W=2.4e-07
+ AD=3.36e-14	AS=3.36e-14	PD=7.8e-07	PS=7.8e-07
+ scc=8.711518e-20 scb=3.697870e-10 sca=3.112068e-01 sb=1.4e-07 sa=3.45e-07
MI2/I17/avD2_1	I2/avC25	I2/avC26	VSS	VSS
+ nmos1v#20ivpcell#20gpdk045	L=4.5e-08	W=2.4e-07
+ AD=3.84e-14	AS=3.84e-14	PD=7.8e-07	PS=7.8e-07
+ scc=3.228235e-04 scb=9.129186e-03 sca=7.663060e+00 sb=3.45e-07 sa=1.4e-07
MI2/I17/avD2_2	VSS	I2/avC26	I2/avC25	VSS
+ nmos1v#20ivpcell#20gpdk045	L=4.5e-08	W=2.4e-07
+ AD=3.36e-14	AS=3.36e-14	PD=7.8e-07	PS=7.8e-07
+ scc=3.228235e-04 scb=9.129186e-03 sca=7.680359e+00 sb=1.4e-07 sa=3.45e-07
MI2/I13/avD2_1	I2/avC23	I2/avC24	VSS	VSS
+ nmos1v#20ivpcell#20gpdk045	L=4.5e-08	W=2.4e-07
+ AD=3.84e-14	AS=3.84e-14	PD=7.8e-07	PS=7.8e-07
+ scc=3.228235e-04 scb=9.129186e-03 sca=7.589900e+00 sb=3.45e-07 sa=1.4e-07
MI2/I13/avD2_2	VSS	I2/avC24	I2/avC23	VSS
+ nmos1v#20ivpcell#20gpdk045	L=4.5e-08	W=2.4e-07
+ AD=3.36e-14	AS=3.36e-14	PD=7.8e-07	PS=7.8e-07
+ scc=3.228235e-04 scb=9.129186e-03 sca=7.589900e+00 sb=1.4e-07 sa=3.45e-07
MI2/I14/avD2_1	I2/avC22	I2/avC24	VSS	VSS
+ nmos1v#20ivpcell#20gpdk045	L=4.5e-08	W=2.4e-07
+ AD=3.84e-14	AS=3.84e-14	PD=7.8e-07	PS=7.8e-07
+ scc=3.228235e-04 scb=9.129186e-03 sca=7.589900e+00 sb=3.45e-07 sa=1.4e-07
MI2/I14/avD2_2	VSS	I2/avC24	I2/avC22	VSS
+ nmos1v#20ivpcell#20gpdk045	L=4.5e-08	W=2.4e-07
+ AD=3.36e-14	AS=3.36e-14	PD=7.8e-07	PS=7.8e-07
+ scc=3.228235e-04 scb=9.129186e-03 sca=7.589900e+00 sb=1.4e-07 sa=3.45e-07
MI2/I10/avD2_1	I2/avC20	I2/avC21	VSS	VSS
+ nmos1v#20ivpcell#20gpdk045	L=4.5e-08	W=2.4e-07
+ AD=3.84e-14	AS=3.84e-14	PD=7.8e-07	PS=7.8e-07
+ scc=3.228235e-04 scb=9.129186e-03 sca=7.589900e+00 sb=3.45e-07 sa=1.4e-07
MI2/I10/avD2_2	VSS	I2/avC21	I2/avC20	VSS
+ nmos1v#20ivpcell#20gpdk045	L=4.5e-08	W=2.4e-07
+ AD=3.36e-14	AS=3.36e-14	PD=7.8e-07	PS=7.8e-07
+ scc=3.228235e-04 scb=9.129186e-03 sca=7.589900e+00 sb=1.4e-07 sa=3.45e-07
MI2/I11/avD2_1	I2/avC19	I2/avC21	VSS	VSS
+ nmos1v#20ivpcell#20gpdk045	L=4.5e-08	W=2.4e-07
+ AD=3.84e-14	AS=3.84e-14	PD=7.8e-07	PS=7.8e-07
+ scc=3.228235e-04 scb=9.129186e-03 sca=7.589900e+00 sb=3.45e-07 sa=1.4e-07
MI2/I11/avD2_2	VSS	I2/avC21	I2/avC19	VSS
+ nmos1v#20ivpcell#20gpdk045	L=4.5e-08	W=2.4e-07
+ AD=3.36e-14	AS=3.36e-14	PD=7.8e-07	PS=7.8e-07
+ scc=3.228235e-04 scb=9.129186e-03 sca=7.589900e+00 sb=1.4e-07 sa=3.45e-07
MI2/I7/avD2_1	I2/avC17	I2/avC18	VSS	VSS
+ nmos1v#20ivpcell#20gpdk045	L=4.5e-08	W=2.4e-07
+ AD=3.84e-14	AS=3.84e-14	PD=7.8e-07	PS=7.8e-07
+ scc=3.228235e-04 scb=9.129186e-03 sca=7.589900e+00 sb=3.45e-07 sa=1.4e-07
MI2/I7/avD2_2	VSS	I2/avC18	I2/avC17	VSS
+ nmos1v#20ivpcell#20gpdk045	L=4.5e-08	W=2.4e-07
+ AD=3.36e-14	AS=3.36e-14	PD=7.8e-07	PS=7.8e-07
+ scc=3.228235e-04 scb=9.129186e-03 sca=7.589900e+00 sb=1.4e-07 sa=3.45e-07
MI2/I6/avD2_1	I2/avC16	I2/avC18	VSS	VSS
+ nmos1v#20ivpcell#20gpdk045	L=4.5e-08	W=2.4e-07
+ AD=3.84e-14	AS=3.84e-14	PD=7.8e-07	PS=7.8e-07
+ scc=3.228235e-04 scb=9.129186e-03 sca=7.589900e+00 sb=3.45e-07 sa=1.4e-07
MI2/I6/avD2_2	VSS	I2/avC18	I2/avC16	VSS
+ nmos1v#20ivpcell#20gpdk045	L=4.5e-08	W=2.4e-07
+ AD=3.36e-14	AS=3.36e-14	PD=7.8e-07	PS=7.8e-07
+ scc=3.228235e-04 scb=9.129186e-03 sca=7.589900e+00 sb=1.4e-07 sa=3.45e-07
MI2/I0/avD2_1	I2/avC14	I2/avC15	VSS	VSS
+ nmos1v#20ivpcell#20gpdk045	L=4.5e-08	W=2.4e-07
+ AD=3.84e-14	AS=3.84e-14	PD=7.8e-07	PS=7.8e-07
+ scc=3.228235e-04 scb=9.129186e-03 sca=7.589900e+00 sb=3.45e-07 sa=1.4e-07
MI2/I0/avD2_2	VSS	I2/avC15	I2/avC14	VSS
+ nmos1v#20ivpcell#20gpdk045	L=4.5e-08	W=2.4e-07
+ AD=3.36e-14	AS=3.36e-14	PD=7.8e-07	PS=7.8e-07
+ scc=3.228235e-04 scb=9.129186e-03 sca=7.589900e+00 sb=1.4e-07 sa=3.45e-07
MI2/I2/avD2_1	I2/avC13	I2/avC15	VSS	VSS
+ nmos1v#20ivpcell#20gpdk045	L=4.5e-08	W=2.4e-07
+ AD=3.84e-14	AS=3.84e-14	PD=7.8e-07	PS=7.8e-07
+ scc=3.228235e-04 scb=9.129186e-03 sca=7.589900e+00 sb=3.45e-07 sa=1.4e-07
MI2/I2/avD2_2	VSS	I2/avC15	I2/avC13	VSS
+ nmos1v#20ivpcell#20gpdk045	L=4.5e-08	W=2.4e-07
+ AD=3.36e-14	AS=3.36e-14	PD=7.8e-07	PS=7.8e-07
+ scc=3.228235e-04 scb=9.129186e-03 sca=7.589900e+00 sb=1.4e-07 sa=3.45e-07
MI2/I5/avD2_1	I2/I5/avC3	I2/A_xor2_s4f2__avC_8	VSS	VSS
+ nmos1v#20ivpcell#20gpdk045	L=4.5e-08	W=2.4e-07
+ AD=3.84e-14	AS=3.84e-14	PD=7.8e-07	PS=7.8e-07
+ scc=7.469586e-19 scb=1.056130e-09 sca=3.314577e-01 sb=3.45e-07 sa=1.4e-07
MI2/I5/avD2_2	VSS	I2/A_xor2_s4f2__avC_8	I2/I5/avC3	VSS
+ nmos1v#20ivpcell#20gpdk045	L=4.5e-08	W=2.4e-07
+ AD=3.36e-14	AS=3.36e-14	PD=7.8e-07	PS=7.8e-07
+ scc=7.469586e-19 scb=1.056130e-09 sca=3.314577e-01 sb=1.4e-07 sa=3.45e-07
MI2/I5/avD2_3	I2/I5/avC5	avC34	I2/I5/avC3	VSS
+ nmos1v#20ivpcell#20gpdk045	L=4.5e-08	W=2.4e-07
+ AD=3.84e-14	AS=3.84e-14	PD=7.8e-07	PS=7.8e-07
+ scc=7.469586e-19 scb=1.056130e-09 sca=3.314577e-01 sb=3.45e-07 sa=1.4e-07
MI2/I5/avD2_4	I2/I5/avC3	avC34	I2/I5/avC5	VSS
+ nmos1v#20ivpcell#20gpdk045	L=4.5e-08	W=2.4e-07
+ AD=3.36e-14	AS=3.36e-14	PD=7.8e-07	PS=7.8e-07
+ scc=7.469586e-19 scb=1.056130e-09 sca=3.314577e-01 sb=1.4e-07 sa=3.45e-07
MI2/I5/avD2_5	I2/I5/avC4	I2/I5/avC5	VSS	VSS
+ nmos1v#20ivpcell#20gpdk045	L=4.5e-08	W=2.4e-07
+ AD=3.84e-14	AS=3.84e-14	PD=7.8e-07	PS=7.8e-07
+ scc=7.469586e-19 scb=1.056130e-09 sca=3.314577e-01 sb=3.45e-07 sa=1.4e-07
MI2/I5/avD2_6	VSS	I2/I5/avC5	I2/I5/avC4	VSS
+ nmos1v#20ivpcell#20gpdk045	L=4.5e-08	W=2.4e-07
+ AD=3.36e-14	AS=3.36e-14	PD=7.8e-07	PS=7.8e-07
+ scc=7.469586e-19 scb=1.056130e-09 sca=3.314577e-01 sb=1.4e-07 sa=3.45e-07
MI2/I5/avD2_7	I2/B_xor2_s4f2__avC_8	CLK1pt6G	I2/I5/avC4	VSS
+ nmos1v#20ivpcell#20gpdk045	L=4.5e-08	W=2.4e-07
+ AD=3.84e-14	AS=3.84e-14	PD=7.8e-07	PS=7.8e-07
+ scc=7.469586e-19 scb=1.056130e-09 sca=3.314577e-01 sb=3.45e-07 sa=1.4e-07
MI2/I5/avD2_8	I2/I5/avC4	CLK1pt6G	I2/B_xor2_s4f2__avC_8	VSS
+ nmos1v#20ivpcell#20gpdk045	L=4.5e-08	W=2.4e-07
+ AD=3.36e-14	AS=3.36e-14	PD=7.8e-07	PS=7.8e-07
+ scc=7.469586e-19 scb=1.056130e-09 sca=3.314577e-01 sb=1.4e-07 sa=3.45e-07
MI2/I15/avD2_1	I2/I15/avC3	I2/avC25	VSS	VSS
+ nmos1v#20ivpcell#20gpdk045	L=4.5e-08	W=2.4e-07
+ AD=3.84e-14	AS=3.84e-14	PD=7.8e-07	PS=7.8e-07
+ scc=1.287243e-03 scb=1.603583e-02 sca=1.334497e+01 sb=3.45e-07 sa=1.4e-07
MI2/I15/avD2_2	VSS	I2/avC25	I2/I15/avC3	VSS
+ nmos1v#20ivpcell#20gpdk045	L=4.5e-08	W=2.4e-07
+ AD=3.36e-14	AS=3.36e-14	PD=7.8e-07	PS=7.8e-07
+ scc=1.287243e-03 scb=1.603583e-02 sca=1.334497e+01 sb=1.4e-07 sa=3.45e-07
MI2/I15/avD2_3	I2/I15/avC5	I2/avC24	I2/I15/avC3	VSS
+ nmos1v#20ivpcell#20gpdk045	L=4.5e-08	W=2.4e-07
+ AD=3.84e-14	AS=3.84e-14	PD=7.8e-07	PS=7.8e-07
+ scc=1.287243e-03 scb=1.603583e-02 sca=1.334824e+01 sb=3.45e-07 sa=1.4e-07
MI2/I15/avD2_4	I2/I15/avC3	I2/avC24	I2/I15/avC5	VSS
+ nmos1v#20ivpcell#20gpdk045	L=4.5e-08	W=2.4e-07
+ AD=3.36e-14	AS=3.36e-14	PD=7.8e-07	PS=7.8e-07
+ scc=1.287243e-03 scb=1.603583e-02 sca=1.335213e+01 sb=1.4e-07 sa=3.45e-07
MI2/I15/avD2_5	I2/I15/avC4	I2/I15/avC5	VSS	VSS
+ nmos1v#20ivpcell#20gpdk045	L=4.5e-08	W=2.4e-07
+ AD=3.84e-14	AS=3.84e-14	PD=7.8e-07	PS=7.8e-07
+ scc=1.287243e-03 scb=1.603583e-02 sca=1.336155e+01 sb=3.45e-07 sa=1.4e-07
MI2/I15/avD2_6	VSS	I2/I15/avC5	I2/I15/avC4	VSS
+ nmos1v#20ivpcell#20gpdk045	L=4.5e-08	W=2.4e-07
+ AD=3.36e-14	AS=3.36e-14	PD=7.8e-07	PS=7.8e-07
+ scc=1.287243e-03 scb=1.603583e-02 sca=1.336744e+01 sb=1.4e-07 sa=3.45e-07
MI2/I15/avD2_7	I2/avC26	I2/avC23	I2/I15/avC4	VSS
+ nmos1v#20ivpcell#20gpdk045	L=4.5e-08	W=2.4e-07
+ AD=3.84e-14	AS=3.84e-14	PD=7.8e-07	PS=7.8e-07
+ scc=1.287243e-03 scb=1.603583e-02 sca=1.338217e+01 sb=3.45e-07 sa=1.4e-07
MI2/I15/avD2_8	I2/I15/avC4	I2/avC23	I2/avC26	VSS
+ nmos1v#20ivpcell#20gpdk045	L=4.5e-08	W=2.4e-07
+ AD=3.36e-14	AS=3.36e-14	PD=7.8e-07	PS=7.8e-07
+ scc=1.287243e-03 scb=1.603583e-02 sca=1.339171e+01 sb=1.4e-07 sa=3.45e-07
MI2/I12/avD2_1	I2/I12/avC3	I2/avC22	VSS	VSS
+ nmos1v#20ivpcell#20gpdk045	L=4.5e-08	W=2.4e-07
+ AD=3.84e-14	AS=3.84e-14	PD=7.8e-07	PS=7.8e-07
+ scc=1.287243e-03 scb=1.603583e-02 sca=1.334497e+01 sb=3.45e-07 sa=1.4e-07
MI2/I12/avD2_2	VSS	I2/avC22	I2/I12/avC3	VSS
+ nmos1v#20ivpcell#20gpdk045	L=4.5e-08	W=2.4e-07
+ AD=3.36e-14	AS=3.36e-14	PD=7.8e-07	PS=7.8e-07
+ scc=1.287243e-03 scb=1.603583e-02 sca=1.334497e+01 sb=1.4e-07 sa=3.45e-07
MI2/I12/avD2_3	I2/I12/avC5	I2/avC21	I2/I12/avC3	VSS
+ nmos1v#20ivpcell#20gpdk045	L=4.5e-08	W=2.4e-07
+ AD=3.84e-14	AS=3.84e-14	PD=7.8e-07	PS=7.8e-07
+ scc=1.287243e-03 scb=1.603583e-02 sca=1.334497e+01 sb=3.45e-07 sa=1.4e-07
MI2/I12/avD2_4	I2/I12/avC3	I2/avC21	I2/I12/avC5	VSS
+ nmos1v#20ivpcell#20gpdk045	L=4.5e-08	W=2.4e-07
+ AD=3.36e-14	AS=3.36e-14	PD=7.8e-07	PS=7.8e-07
+ scc=1.287243e-03 scb=1.603583e-02 sca=1.334497e+01 sb=1.4e-07 sa=3.45e-07
MI2/I12/avD2_5	I2/I12/avC4	I2/I12/avC5	VSS	VSS
+ nmos1v#20ivpcell#20gpdk045	L=4.5e-08	W=2.4e-07
+ AD=3.84e-14	AS=3.84e-14	PD=7.8e-07	PS=7.8e-07
+ scc=1.287243e-03 scb=1.603583e-02 sca=1.334497e+01 sb=3.45e-07 sa=1.4e-07
MI2/I12/avD2_6	VSS	I2/I12/avC5	I2/I12/avC4	VSS
+ nmos1v#20ivpcell#20gpdk045	L=4.5e-08	W=2.4e-07
+ AD=3.36e-14	AS=3.36e-14	PD=7.8e-07	PS=7.8e-07
+ scc=1.287243e-03 scb=1.603583e-02 sca=1.334497e+01 sb=1.4e-07 sa=3.45e-07
MI2/I12/avD2_7	I2/avC24	I2/avC20	I2/I12/avC4	VSS
+ nmos1v#20ivpcell#20gpdk045	L=4.5e-08	W=2.4e-07
+ AD=3.84e-14	AS=3.84e-14	PD=7.8e-07	PS=7.8e-07
+ scc=1.287243e-03 scb=1.603583e-02 sca=1.334497e+01 sb=3.45e-07 sa=1.4e-07
MI2/I12/avD2_8	I2/I12/avC4	I2/avC20	I2/avC24	VSS
+ nmos1v#20ivpcell#20gpdk045	L=4.5e-08	W=2.4e-07
+ AD=3.36e-14	AS=3.36e-14	PD=7.8e-07	PS=7.8e-07
+ scc=1.287243e-03 scb=1.603583e-02 sca=1.334497e+01 sb=1.4e-07 sa=3.45e-07
MI2/I9/avD2_1	I2/I9/avC3	I2/avC19	VSS	VSS
+ nmos1v#20ivpcell#20gpdk045	L=4.5e-08	W=2.4e-07
+ AD=3.84e-14	AS=3.84e-14	PD=7.8e-07	PS=7.8e-07
+ scc=1.287243e-03 scb=1.603583e-02 sca=1.334497e+01 sb=3.45e-07 sa=1.4e-07
MI2/I9/avD2_2	VSS	I2/avC19	I2/I9/avC3	VSS
+ nmos1v#20ivpcell#20gpdk045	L=4.5e-08	W=2.4e-07
+ AD=3.36e-14	AS=3.36e-14	PD=7.8e-07	PS=7.8e-07
+ scc=1.287243e-03 scb=1.603583e-02 sca=1.334497e+01 sb=1.4e-07 sa=3.45e-07
MI2/I9/avD2_3	I2/I9/avC5	I2/avC18	I2/I9/avC3	VSS
+ nmos1v#20ivpcell#20gpdk045	L=4.5e-08	W=2.4e-07
+ AD=3.84e-14	AS=3.84e-14	PD=7.8e-07	PS=7.8e-07
+ scc=1.287243e-03 scb=1.603583e-02 sca=1.334497e+01 sb=3.45e-07 sa=1.4e-07
MI2/I9/avD2_4	I2/I9/avC3	I2/avC18	I2/I9/avC5	VSS
+ nmos1v#20ivpcell#20gpdk045	L=4.5e-08	W=2.4e-07
+ AD=3.36e-14	AS=3.36e-14	PD=7.8e-07	PS=7.8e-07
+ scc=1.287243e-03 scb=1.603583e-02 sca=1.334497e+01 sb=1.4e-07 sa=3.45e-07
MI2/I9/avD2_5	I2/I9/avC4	I2/I9/avC5	VSS	VSS
+ nmos1v#20ivpcell#20gpdk045	L=4.5e-08	W=2.4e-07
+ AD=3.84e-14	AS=3.84e-14	PD=7.8e-07	PS=7.8e-07
+ scc=1.287243e-03 scb=1.603583e-02 sca=1.334497e+01 sb=3.45e-07 sa=1.4e-07
MI2/I9/avD2_6	VSS	I2/I9/avC5	I2/I9/avC4	VSS
+ nmos1v#20ivpcell#20gpdk045	L=4.5e-08	W=2.4e-07
+ AD=3.36e-14	AS=3.36e-14	PD=7.8e-07	PS=7.8e-07
+ scc=1.287243e-03 scb=1.603583e-02 sca=1.334497e+01 sb=1.4e-07 sa=3.45e-07
MI2/I9/avD2_7	I2/avC21	I2/avC17	I2/I9/avC4	VSS
+ nmos1v#20ivpcell#20gpdk045	L=4.5e-08	W=2.4e-07
+ AD=3.84e-14	AS=3.84e-14	PD=7.8e-07	PS=7.8e-07
+ scc=1.287243e-03 scb=1.603583e-02 sca=1.334497e+01 sb=3.45e-07 sa=1.4e-07
MI2/I9/avD2_8	I2/I9/avC4	I2/avC17	I2/avC21	VSS
+ nmos1v#20ivpcell#20gpdk045	L=4.5e-08	W=2.4e-07
+ AD=3.36e-14	AS=3.36e-14	PD=7.8e-07	PS=7.8e-07
+ scc=1.287243e-03 scb=1.603583e-02 sca=1.334497e+01 sb=1.4e-07 sa=3.45e-07
MI2/I3/avD2_1	I2/I3/avC3	I2/avC16	VSS	VSS
+ nmos1v#20ivpcell#20gpdk045	L=4.5e-08	W=2.4e-07
+ AD=3.84e-14	AS=3.84e-14	PD=7.8e-07	PS=7.8e-07
+ scc=1.287243e-03 scb=1.603583e-02 sca=1.334497e+01 sb=3.45e-07 sa=1.4e-07
MI2/I3/avD2_2	VSS	I2/avC16	I2/I3/avC3	VSS
+ nmos1v#20ivpcell#20gpdk045	L=4.5e-08	W=2.4e-07
+ AD=3.36e-14	AS=3.36e-14	PD=7.8e-07	PS=7.8e-07
+ scc=1.287243e-03 scb=1.603583e-02 sca=1.334497e+01 sb=1.4e-07 sa=3.45e-07
MI2/I3/avD2_3	I2/I3/avC5	I2/avC15	I2/I3/avC3	VSS
+ nmos1v#20ivpcell#20gpdk045	L=4.5e-08	W=2.4e-07
+ AD=3.84e-14	AS=3.84e-14	PD=7.8e-07	PS=7.8e-07
+ scc=1.287243e-03 scb=1.603583e-02 sca=1.334497e+01 sb=3.45e-07 sa=1.4e-07
MI2/I3/avD2_4	I2/I3/avC3	I2/avC15	I2/I3/avC5	VSS
+ nmos1v#20ivpcell#20gpdk045	L=4.5e-08	W=2.4e-07
+ AD=3.36e-14	AS=3.36e-14	PD=7.8e-07	PS=7.8e-07
+ scc=1.287243e-03 scb=1.603583e-02 sca=1.334497e+01 sb=1.4e-07 sa=3.45e-07
MI2/I3/avD2_5	I2/I3/avC4	I2/I3/avC5	VSS	VSS
+ nmos1v#20ivpcell#20gpdk045	L=4.5e-08	W=2.4e-07
+ AD=3.84e-14	AS=3.84e-14	PD=7.8e-07	PS=7.8e-07
+ scc=1.287243e-03 scb=1.603583e-02 sca=1.334497e+01 sb=3.45e-07 sa=1.4e-07
MI2/I3/avD2_6	VSS	I2/I3/avC5	I2/I3/avC4	VSS
+ nmos1v#20ivpcell#20gpdk045	L=4.5e-08	W=2.4e-07
+ AD=3.36e-14	AS=3.36e-14	PD=7.8e-07	PS=7.8e-07
+ scc=1.287243e-03 scb=1.603583e-02 sca=1.334497e+01 sb=1.4e-07 sa=3.45e-07
MI2/I3/avD2_7	I2/avC18	I2/avC14	I2/I3/avC4	VSS
+ nmos1v#20ivpcell#20gpdk045	L=4.5e-08	W=2.4e-07
+ AD=3.84e-14	AS=3.84e-14	PD=7.8e-07	PS=7.8e-07
+ scc=1.287243e-03 scb=1.603583e-02 sca=1.334497e+01 sb=3.45e-07 sa=1.4e-07
MI2/I3/avD2_8	I2/I3/avC4	I2/avC14	I2/avC18	VSS
+ nmos1v#20ivpcell#20gpdk045	L=4.5e-08	W=2.4e-07
+ AD=3.36e-14	AS=3.36e-14	PD=7.8e-07	PS=7.8e-07
+ scc=1.287243e-03 scb=1.603583e-02 sca=1.334497e+01 sb=1.4e-07 sa=3.45e-07
MI2/I4/avD2_1	I2/I4/avC5	I2/avC26	VSS	VSS
+ nmos1v#20ivpcell#20gpdk045	L=4.5e-08	W=2.4e-07
+ AD=3.84e-14	AS=3.84e-14	PD=7.8e-07	PS=7.8e-07
+ scc=7.469586e-19 scb=1.056317e-09 sca=3.998490e-01 sb=3.45e-07 sa=1.4e-07
MI2/I4/avD2_2	VSS	I2/avC26	I2/I4/avC5	VSS
+ nmos1v#20ivpcell#20gpdk045	L=4.5e-08	W=2.4e-07
+ AD=3.36e-14	AS=3.36e-14	PD=7.8e-07	PS=7.8e-07
+ scc=7.469586e-19 scb=1.056155e-09 sca=3.866394e-01 sb=1.4e-07 sa=3.45e-07
MI2/I4/avD2_3	I2/I4/avC7	avC34	I2/I4/avC5	VSS
+ nmos1v#20ivpcell#20gpdk045	L=4.5e-08	W=2.4e-07
+ AD=3.84e-14	AS=3.84e-14	PD=7.8e-07	PS=7.8e-07
+ scc=7.469586e-19 scb=1.056130e-09 sca=3.667756e-01 sb=3.45e-07 sa=1.4e-07
MI2/I4/avD2_4	I2/I4/avC5	avC34	I2/I4/avC7	VSS
+ nmos1v#20ivpcell#20gpdk045	L=4.5e-08	W=2.4e-07
+ AD=3.36e-14	AS=3.36e-14	PD=7.8e-07	PS=7.8e-07
+ scc=7.469586e-19 scb=1.056130e-09 sca=3.590197e-01 sb=1.4e-07 sa=3.45e-07
MI2/I4/avD2_5	I2/I4/avC6	I2/I4/avC7	VSS	VSS
+ nmos1v#20ivpcell#20gpdk045	L=4.5e-08	W=2.4e-07
+ AD=3.84e-14	AS=3.84e-14	PD=7.8e-07	PS=7.8e-07
+ scc=7.469586e-19 scb=1.056130e-09 sca=3.468551e-01 sb=3.45e-07 sa=1.4e-07
MI2/I4/avD2_6	VSS	I2/I4/avC7	I2/I4/avC6	VSS
+ nmos1v#20ivpcell#20gpdk045	L=4.5e-08	W=2.4e-07
+ AD=3.36e-14	AS=3.36e-14	PD=7.8e-07	PS=7.8e-07
+ scc=7.469586e-19 scb=1.056130e-09 sca=3.419196e-01 sb=1.4e-07 sa=3.45e-07
MI2/I4/avD2_7	I2/A_xor2_s4f2__avC_8	CLK1pt6G	I2/I4/avC6	VSS
+ nmos1v#20ivpcell#20gpdk045	L=4.5e-08	W=2.4e-07
+ AD=3.84e-14	AS=3.84e-14	PD=7.8e-07	PS=7.8e-07
+ scc=7.469586e-19 scb=1.056130e-09 sca=3.339361e-01 sb=3.45e-07 sa=1.4e-07
MI2/I4/avD2_8	I2/I4/avC6	CLK1pt6G	I2/A_xor2_s4f2__avC_8	VSS
+ nmos1v#20ivpcell#20gpdk045	L=4.5e-08	W=2.4e-07
+ AD=3.36e-14	AS=3.36e-14	PD=7.8e-07	PS=7.8e-07
+ scc=7.469586e-19 scb=1.056130e-09 sca=3.314577e-01 sb=1.4e-07 sa=3.45e-07
MI2/I1/avD2_1	I2/I1/avC5	I2/avC13	VSS	VSS
+ nmos1v#20ivpcell#20gpdk045	L=4.5e-08	W=2.4e-07
+ AD=3.84e-14	AS=3.84e-14	PD=7.8e-07	PS=7.8e-07
+ scc=1.287243e-03 scb=1.603583e-02 sca=1.334497e+01 sb=3.45e-07 sa=1.4e-07
MI2/I1/avD2_2	VSS	I2/avC13	I2/I1/avC5	VSS
+ nmos1v#20ivpcell#20gpdk045	L=4.5e-08	W=2.4e-07
+ AD=3.36e-14	AS=3.36e-14	PD=7.8e-07	PS=7.8e-07
+ scc=1.287243e-03 scb=1.603583e-02 sca=1.334497e+01 sb=1.4e-07 sa=3.45e-07
MI2/I1/avD2_3	I2/I1/avC7	avC34	I2/I1/avC5	VSS
+ nmos1v#20ivpcell#20gpdk045	L=4.5e-08	W=2.4e-07
+ AD=3.84e-14	AS=3.84e-14	PD=7.8e-07	PS=7.8e-07
+ scc=1.287243e-03 scb=1.603583e-02 sca=1.334497e+01 sb=3.45e-07 sa=1.4e-07
MI2/I1/avD2_4	I2/I1/avC5	avC34	I2/I1/avC7	VSS
+ nmos1v#20ivpcell#20gpdk045	L=4.5e-08	W=2.4e-07
+ AD=3.36e-14	AS=3.36e-14	PD=7.8e-07	PS=7.8e-07
+ scc=1.287243e-03 scb=1.603583e-02 sca=1.334497e+01 sb=1.4e-07 sa=3.45e-07
MI2/I1/avD2_5	I2/I1/avC6	I2/I1/avC7	VSS	VSS
+ nmos1v#20ivpcell#20gpdk045	L=4.5e-08	W=2.4e-07
+ AD=3.84e-14	AS=3.84e-14	PD=7.8e-07	PS=7.8e-07
+ scc=1.287243e-03 scb=1.603583e-02 sca=1.334497e+01 sb=3.45e-07 sa=1.4e-07
MI2/I1/avD2_6	VSS	I2/I1/avC7	I2/I1/avC6	VSS
+ nmos1v#20ivpcell#20gpdk045	L=4.5e-08	W=2.4e-07
+ AD=3.36e-14	AS=3.36e-14	PD=7.8e-07	PS=7.8e-07
+ scc=1.287243e-03 scb=1.603583e-02 sca=1.334497e+01 sb=1.4e-07 sa=3.45e-07
MI2/I1/avD2_7	I2/avC15	CLK1pt6G	I2/I1/avC6	VSS
+ nmos1v#20ivpcell#20gpdk045	L=4.5e-08	W=2.4e-07
+ AD=3.84e-14	AS=3.84e-14	PD=7.8e-07	PS=7.8e-07
+ scc=1.287243e-03 scb=1.603583e-02 sca=1.334497e+01 sb=3.45e-07 sa=1.4e-07
MI2/I1/avD2_8	I2/I1/avC6	CLK1pt6G	I2/avC15	VSS
+ nmos1v#20ivpcell#20gpdk045	L=4.5e-08	W=2.4e-07
+ AD=3.36e-14	AS=3.36e-14	PD=7.8e-07	PS=7.8e-07
+ scc=1.287243e-03 scb=1.603583e-02 sca=1.334497e+01 sb=1.4e-07 sa=3.45e-07
MI2/avI6/avD2_1	VSS	I2/avC12	I2/avC6	VSS
+ nmos1v#20ivpcell#20gpdk045	L=4.5e-08	W=4.8e-07
+ AD=6.72e-14	AS=6.72e-14	PD=1.26e-06	PS=1.26e-06
+ scc=4.759661e-18 scb=2.003762e-09 sca=3.338175e-01 sb=1.4e-07 sa=3.45e-07
MI2/avI6/avD2_2	I2/avC6	I2/avC12	VSS	VSS
+ nmos1v#20ivpcell#20gpdk045	L=4.5e-08	W=4.8e-07
+ AD=7.68e-14	AS=7.68e-14	PD=1.26e-06	PS=1.26e-06
+ scc=4.759661e-18 scb=2.003762e-09 sca=3.338175e-01 sb=3.45e-07 sa=1.4e-07
MI2/avI5/avD2_1	VSS	I2/B_xor2_s4f2__avC_8	I2/avC27	VSS
+ nmos1v#20ivpcell#20gpdk045	L=4.5e-08	W=4.8e-07
+ AD=6.72e-14	AS=6.72e-14	PD=1.26e-06	PS=1.26e-06
+ scc=5.246854e-18 scb=2.101260e-09 sca=3.348456e-01 sb=1.4e-07 sa=3.45e-07
MI2/avI5/avD2_2	I2/avC27	I2/B_xor2_s4f2__avC_8	VSS	VSS
+ nmos1v#20ivpcell#20gpdk045	L=4.5e-08	W=4.8e-07
+ AD=7.68e-14	AS=7.68e-14	PD=1.26e-06	PS=1.26e-06
+ scc=5.246854e-18 scb=2.101260e-09 sca=3.348456e-01 sb=3.45e-07 sa=1.4e-07
MI2/avI4/avD2_1	VSS	I2/A_xor2_s4f2__avC_8	I2/avC28	VSS
+ nmos1v#20ivpcell#20gpdk045	L=4.5e-08	W=4.8e-07
+ AD=6.72e-14	AS=6.72e-14	PD=1.26e-06	PS=1.26e-06
+ scc=5.246854e-18 scb=2.101260e-09 sca=3.348456e-01 sb=1.4e-07 sa=3.45e-07
MI2/avI4/avD2_2	I2/avC28	I2/A_xor2_s4f2__avC_8	VSS	VSS
+ nmos1v#20ivpcell#20gpdk045	L=4.5e-08	W=4.8e-07
+ AD=7.68e-14	AS=7.68e-14	PD=1.26e-06	PS=1.26e-06
+ scc=5.246854e-18 scb=2.101260e-09 sca=3.348456e-01 sb=3.45e-07 sa=1.4e-07
MI2/avI3/avD2_1	I2/avC28	I2/B_xor2_s4f2__avC_8	I2/out_xor2_s4f2__avC_8
+ VSS	nmos1v#20ivpcell#20gpdk045	L=4.5e-08	W=4.8e-07
+ AD=6.72e-14	AS=6.72e-14	PD=1.26e-06	PS=1.26e-06
+ scc=5.246854e-18 scb=2.101260e-09 sca=3.348456e-01 sb=1.4e-07 sa=3.45e-07
MI2/avI3/avD2_2	I2/out_xor2_s4f2__avC_8	I2/B_xor2_s4f2__avC_8
+ I2/avC28	VSS	nmos1v#20ivpcell#20gpdk045	L=4.5e-08
+ W=4.8e-07
+ AD=7.68e-14	AS=7.68e-14	PD=1.26e-06	PS=1.26e-06
+ scc=5.246854e-18 scb=2.101260e-09 sca=3.348456e-01 sb=3.45e-07 sa=1.4e-07
MI2/avI2/avD2_1	I2/A_xor2_s4f2__avC_8	I2/avC27	I2/out_xor2_s4f2__avC_8
+ VSS	nmos1v#20ivpcell#20gpdk045	L=4.5e-08	W=4.8e-07
+ AD=6.72e-14	AS=6.72e-14	PD=1.26e-06	PS=1.26e-06
+ scc=5.246854e-18 scb=2.101260e-09 sca=3.348456e-01 sb=1.4e-07 sa=3.45e-07
MI2/avI2/avD2_2	I2/out_xor2_s4f2__avC_8	I2/avC27
+ I2/A_xor2_s4f2__avC_8	VSS	nmos1v#20ivpcell#20gpdk045	L=4.5e-08
+ W=4.8e-07
+ AD=7.68e-14	AS=7.68e-14	PD=1.26e-06	PS=1.26e-06
+ scc=5.246854e-18 scb=2.101260e-09 sca=3.348456e-01 sb=3.45e-07 sa=1.4e-07
MI2/avI1/avD2_1	avC14	I2/avC7	VSS	VSS
+ nmos1v#20ivpcell#20gpdk045	L=4.5e-08	W=4.8e-07
+ AD=7.68e-14	AS=7.68e-14	PD=1.28e-06	PS=1.28e-06
+ scc=4.75966e-18 scb=2.00376e-09 sca=0.333818 sb=1.575e-06 sa=1.78e-06
MI2/avI1/avD2_2	VSS	I2/avC7	avC14	VSS
+ nmos1v#20ivpcell#20gpdk045	L=4.5e-08	W=4.8e-07
+ AD=7.68e-14	AS=7.68e-14	PD=1.28e-06	PS=1.28e-06
+ scc=4.75966e-18 scb=2.00376e-09 sca=0.333818 sb=1.37e-06 sa=1.985e-06
MI2/avI1/avD2_3	avC14	I2/avC7	VSS	VSS
+ nmos1v#20ivpcell#20gpdk045	L=4.5e-08	W=4.8e-07
+ AD=7.68e-14	AS=7.68e-14	PD=1.28e-06	PS=1.28e-06
+ scc=4.75966e-18 scb=2.00376e-09 sca=0.333818 sb=1.165e-06 sa=2.19e-06
MI2/avI1/avD2_4	VSS	I2/avC7	avC14	VSS
+ nmos1v#20ivpcell#20gpdk045	L=4.5e-08	W=4.8e-07
+ AD=7.68e-14	AS=7.68e-14	PD=1.28e-06	PS=1.28e-06
+ scc=4.75966e-18 scb=2.00376e-09 sca=0.333818 sb=9.6e-07 sa=2.395e-06
MI2/avI1/avD2_5	avC14	I2/avC7	VSS	VSS
+ nmos1v#20ivpcell#20gpdk045	L=4.5e-08	W=4.8e-07
+ AD=7.68e-14	AS=7.68e-14	PD=1.28e-06	PS=1.28e-06
+ scc=4.75966e-18 scb=2.00376e-09 sca=0.333818 sb=7.55e-07 sa=2.6e-06
MI2/avI1/avD2_6	VSS	I2/avC7	avC14	VSS
+ nmos1v#20ivpcell#20gpdk045	L=4.5e-08	W=4.8e-07
+ AD=7.68e-14	AS=7.68e-14	PD=1.28e-06	PS=1.28e-06
+ scc=4.75966e-18 scb=2.00376e-09 sca=0.333818 sb=5.5e-07 sa=2.805e-06
MI2/avI1/avD2_7	avC14	I2/avC7	VSS	VSS
+ nmos1v#20ivpcell#20gpdk045	L=4.5e-08	W=4.8e-07
+ AD=7.68e-14	AS=7.68e-14	PD=1.28e-06	PS=1.28e-06
+ scc=4.75966e-18 scb=2.00376e-09 sca=0.333818 sb=3.45e-07 sa=3.01e-06
MI2/avI1/avD2_8	VSS	I2/avC7	avC14	VSS
+ nmos1v#20ivpcell#20gpdk045	L=4.5e-08	W=4.8e-07
+ AD=6.72e-14	AS=6.72e-14	PD=1.26e-06	PS=1.26e-06
+ scc=4.75966e-18 scb=2.00376e-09 sca=0.333818 sb=1.4e-07 sa=3.215e-06
MI2/avI1/avD2_9	avC14	I2/avC7	VSS	VSS
+ nmos1v#20ivpcell#20gpdk045	L=4.5e-08	W=4.8e-07
+ AD=7.68e-14	AS=7.68e-14	PD=1.26e-06	PS=1.26e-06
+ scc=4.75966e-18 scb=2.00376e-09 sca=0.333818 sb=3.215e-06 sa=1.4e-07
MI2/avI1/avD2_10	VSS	I2/avC7	avC14	VSS
+ nmos1v#20ivpcell#20gpdk045	L=4.5e-08	W=4.8e-07
+ AD=7.68e-14	AS=7.68e-14	PD=1.28e-06	PS=1.28e-06
+ scc=4.75966e-18 scb=2.00376e-09 sca=0.333818 sb=3.01e-06 sa=3.45e-07
MI2/avI1/avD2_11	avC14	I2/avC7	VSS	VSS
+ nmos1v#20ivpcell#20gpdk045	L=4.5e-08	W=4.8e-07
+ AD=7.68e-14	AS=7.68e-14	PD=1.28e-06	PS=1.28e-06
+ scc=4.75966e-18 scb=2.00376e-09 sca=0.333818 sb=2.805e-06 sa=5.5e-07
MI2/avI1/avD2_12	VSS	I2/avC7	avC14	VSS
+ nmos1v#20ivpcell#20gpdk045	L=4.5e-08	W=4.8e-07
+ AD=7.68e-14	AS=7.68e-14	PD=1.28e-06	PS=1.28e-06
+ scc=4.75966e-18 scb=2.00376e-09 sca=0.333818 sb=2.6e-06 sa=7.55e-07
MI2/avI1/avD2_13	avC14	I2/avC7	VSS	VSS
+ nmos1v#20ivpcell#20gpdk045	L=4.5e-08	W=4.8e-07
+ AD=7.68e-14	AS=7.68e-14	PD=1.28e-06	PS=1.28e-06
+ scc=4.75966e-18 scb=2.00376e-09 sca=0.333818 sb=2.395e-06 sa=9.6e-07
MI2/avI1/avD2_14	VSS	I2/avC7	avC14	VSS
+ nmos1v#20ivpcell#20gpdk045	L=4.5e-08	W=4.8e-07
+ AD=7.68e-14	AS=7.68e-14	PD=1.28e-06	PS=1.28e-06
+ scc=4.75966e-18 scb=2.00376e-09 sca=0.333818 sb=2.19e-06 sa=1.165e-06
MI2/avI1/avD2_15	avC14	I2/avC7	VSS	VSS
+ nmos1v#20ivpcell#20gpdk045	L=4.5e-08	W=4.8e-07
+ AD=7.68e-14	AS=7.68e-14	PD=1.28e-06	PS=1.28e-06
+ scc=4.75966e-18 scb=2.00376e-09 sca=0.333818 sb=1.985e-06 sa=1.37e-06
MI2/avI1/avD2_16	VSS	I2/avC7	avC14	VSS
+ nmos1v#20ivpcell#20gpdk045	L=4.5e-08	W=4.8e-07
+ AD=7.68e-14	AS=7.68e-14	PD=1.28e-06	PS=1.28e-06
+ scc=4.75966e-18 scb=2.00376e-09 sca=0.333818 sb=1.78e-06 sa=1.575e-06
MI2/avD2_1	I2/avC7	I2/avC6	VSS	VSS
+ nmos1v#20ivpcell#20gpdk045	L=4.5e-08	W=4.8e-07
+ AD=7.68e-14	AS=7.68e-14	PD=1.26e-06	PS=1.26e-06
+ scc=4.75966e-18 scb=2.00376e-09 sca=0.333818 sb=1.575e-06 sa=1.4e-07
MI2/avD2_2	VSS	I2/avC6	I2/avC7	VSS
+ nmos1v#20ivpcell#20gpdk045	L=4.5e-08	W=4.8e-07
+ AD=7.68e-14	AS=7.68e-14	PD=1.28e-06	PS=1.28e-06
+ scc=4.75966e-18 scb=2.00376e-09 sca=0.333818 sb=1.37e-06 sa=3.45e-07
MI2/avD2_3	I2/avC7	I2/avC6	VSS	VSS
+ nmos1v#20ivpcell#20gpdk045	L=4.5e-08	W=4.8e-07
+ AD=7.68e-14	AS=7.68e-14	PD=1.28e-06	PS=1.28e-06
+ scc=4.75966e-18 scb=2.00376e-09 sca=0.333818 sb=1.165e-06 sa=5.5e-07
MI2/avD2_4	VSS	I2/avC6	I2/avC7	VSS
+ nmos1v#20ivpcell#20gpdk045	L=4.5e-08	W=4.8e-07
+ AD=7.68e-14	AS=7.68e-14	PD=1.28e-06	PS=1.28e-06
+ scc=4.75966e-18 scb=2.00376e-09 sca=0.333818 sb=9.6e-07 sa=7.55e-07
MI2/avD2_5	I2/avC7	I2/avC6	VSS	VSS
+ nmos1v#20ivpcell#20gpdk045	L=4.5e-08	W=4.8e-07
+ AD=7.68e-14	AS=7.68e-14	PD=1.28e-06	PS=1.28e-06
+ scc=4.75966e-18 scb=2.00376e-09 sca=0.333818 sb=7.55e-07 sa=9.6e-07
MI2/avD2_6	VSS	I2/avC6	I2/avC7	VSS
+ nmos1v#20ivpcell#20gpdk045	L=4.5e-08	W=4.8e-07
+ AD=7.68e-14	AS=7.68e-14	PD=1.28e-06	PS=1.28e-06
+ scc=4.75966e-18 scb=2.00376e-09 sca=0.333818 sb=5.5e-07 sa=1.165e-06
MI2/avD2_7	I2/avC7	I2/avC6	VSS	VSS
+ nmos1v#20ivpcell#20gpdk045	L=4.5e-08	W=4.8e-07
+ AD=7.68e-14	AS=7.68e-14	PD=1.28e-06	PS=1.28e-06
+ scc=4.75966e-18 scb=2.00376e-09 sca=0.333818 sb=3.45e-07 sa=1.37e-06
MI2/avD2_8	VSS	I2/avC6	I2/avC7	VSS
+ nmos1v#20ivpcell#20gpdk045	L=4.5e-08	W=4.8e-07
+ AD=6.72e-14	AS=6.72e-14	PD=1.26e-06	PS=1.26e-06
+ scc=4.75966e-18 scb=2.00376e-09 sca=0.333818 sb=1.4e-07 sa=1.575e-06
MavI17/avD2_1	avI17/avC10	CLK1pt6G	avI17/avC9	VSS
+ nmos1v#20ivpcell#20gpdk045	L=4.5e-08	W=1.2e-07
+ AD=1.68e-14	AS=1.68e-14	PD=5.4e-07	PS=5.4e-07
+ scc=9.844198e-16 scb=4.124889e-08 sca=4.564767e-01 sb=1.4e-07 sa=3.45e-07
MavI17/avD2_2	avI17/avC9	avI17/avC11	VSS	VSS
+ nmos1v#20ivpcell#20gpdk045	L=4.5e-08	W=1.2e-07
+ AD=1.92e-14	AS=1.92e-14	PD=5.4e-07	PS=5.4e-07
+ scc=1.822105e-17 scb=5.930159e-09 sca=3.923535e-01 sb=3.45e-07 sa=1.4e-07
MavI17/avD2_3	avI17/avC11	avC12	avI17/avC8	VSS
+ nmos1v#20ivpcell#20gpdk045	L=4.5e-08	W=1.2e-07
+ AD=1.68e-14	AS=1.68e-14	PD=5.4e-07	PS=5.4e-07
+ scc=4.511650e-21 scb=1.029236e-10 sca=3.081233e-01 sb=1.4e-07 sa=3.45e-07
MavI17/avD2_4	avI17/avC8	avC48	VSS	VSS
+ nmos1v#20ivpcell#20gpdk045	L=4.5e-08	W=1.2e-07
+ AD=1.92e-14	AS=1.92e-14	PD=5.4e-07	PS=5.4e-07
+ scc=8.119913e-23 scb=1.438834e-11 sca=2.814713e-01 sb=3.45e-07 sa=1.4e-07
MavI17/avD2_5	avC29	avC14	avC33	VSS	nmos1v#20ivpcell#20gpdk045
+ L=4.5e-08	W=1.2e-07
+ AD=1.68e-14	AS=1.68e-14	PD=5.4e-07	PS=5.4e-07
+ scc=7.578283e-18 scb=3.868014e-09 sca=3.727328e-01 sb=1.4e-07 sa=3.45e-07
MavI17/avD2_6	avC33	avC5	avI17/avC10	VSS
+ nmos1v#20ivpcell#20gpdk045	L=4.5e-08	W=1.2e-07
+ AD=1.92e-14	AS=1.92e-14	PD=5.4e-07	PS=5.4e-07
+ scc=1.384389e-19 scb=5.488401e-10 sca=3.288708e-01 sb=3.45e-07 sa=1.4e-07
MavI16/avD2_1	avI16/avC10	CLK1pt6G	avI16/avC9	VSS
+ nmos1v#20ivpcell#20gpdk045	L=4.5e-08	W=1.2e-07
+ AD=1.68e-14	AS=1.68e-14	PD=5.4e-07	PS=5.4e-07
+ scc=1.297806e-26 scb=1.968979e-13 sca=2.410644e-01 sb=1.4e-07 sa=3.45e-07
MavI16/avD2_2	avI16/avC9	avI16/avC11	VSS	VSS
+ nmos1v#20ivpcell#20gpdk045	L=4.5e-08	W=1.2e-07
+ AD=1.92e-14	AS=1.92e-14	PD=5.4e-07	PS=5.4e-07
+ scc=2.296129e-28 scb=2.706008e-14 sca=2.277915e-01 sb=3.45e-07 sa=1.4e-07
MavI16/avD2_3	avI16/avC11	avC12	avI16/avC8	VSS
+ nmos1v#20ivpcell#20gpdk045	L=4.5e-08	W=1.2e-07
+ AD=1.68e-14	AS=1.68e-14	PD=5.4e-07	PS=5.4e-07
+ scc=5.284901e-32 scb=4.375131e-16 sca=2.070231e-01 sb=1.4e-07 sa=3.45e-07
MavI16/avD2_4	avI16/avC8	avC47	VSS	VSS
+ nmos1v#20ivpcell#20gpdk045	L=4.5e-08	W=1.2e-07
+ AD=1.92e-14	AS=1.92e-14	PD=5.4e-07	PS=5.4e-07
+ scc=9.250651e-34 scb=6.026606e-17 sca=1.993595e-01 sb=3.45e-07 sa=1.4e-07
MavI16/avD2_5	avC28	avC14	avC48	VSS	nmos1v#20ivpcell#20gpdk045
+ L=4.5e-08	W=1.2e-07
+ AD=1.68e-14	AS=1.68e-14	PD=5.4e-07	PS=5.4e-07
+ scc=9.465055e-29 scb=1.749328e-14 sca=2.170975e-01 sb=1.4e-07 sa=3.45e-07
MavI16/avD2_6	avC48	avC5	avI16/avC10	VSS
+ nmos1v#20ivpcell#20gpdk045	L=4.5e-08	W=1.2e-07
+ AD=1.92e-14	AS=1.92e-14	PD=5.4e-07	PS=5.4e-07
+ scc=1.666527e-30 scb=2.392520e-15 sca=2.065532e-01 sb=3.45e-07 sa=1.4e-07
MavI15/avD2_1	avI15/avC10	CLK1pt6G	avI15/avC9	VSS
+ nmos1v#20ivpcell#20gpdk045	L=4.5e-08	W=1.2e-07
+ AD=1.68e-14	AS=1.68e-14	PD=5.4e-07	PS=5.4e-07
+ scc=3.587370e-37 scb=1.690695e-18 sca=1.863211e-01 sb=1.4e-07 sa=3.45e-07
MavI15/avD2_2	avI15/avC9	avI15/avC11	VSS	VSS
+ nmos1v#20ivpcell#20gpdk045	L=4.5e-08	W=1.2e-07
+ AD=1.92e-14	AS=1.92e-14	PD=5.4e-07	PS=5.4e-07
+ scc=2.205323e-37 scb=1.022122e-18 sca=1.815677e-01 sb=3.45e-07 sa=1.4e-07
MavI15/avD2_3	avI15/avC11	avC12	avI15/avC8	VSS
+ nmos1v#20ivpcell#20gpdk045	L=4.5e-08	W=1.2e-07
+ AD=1.68e-14	AS=1.68e-14	PD=5.4e-07	PS=5.4e-07
+ scc=2.180912e-37 scb=9.195386e-19 sca=1.735282e-01 sb=1.4e-07 sa=3.45e-07
MavI15/avD2_4	avI15/avC8	avC46	VSS	VSS
+ nmos1v#20ivpcell#20gpdk045	L=4.5e-08	W=1.2e-07
+ AD=1.92e-14	AS=1.92e-14	PD=5.4e-07	PS=5.4e-07
+ scc=2.180908e-37 scb=9.186922e-19 sca=1.723171e-01 sb=3.45e-07 sa=1.4e-07
MavI15/avD2_5	avC27	avC14	avC47	VSS	nmos1v#20ivpcell#20gpdk045
+ L=4.5e-08	W=1.2e-07
+ AD=1.68e-14	AS=1.68e-14	PD=5.4e-07	PS=5.4e-07
+ scc=1.162662e-39 scb=9.430304e-20 sca=1.725012e-01 sb=1.4e-07 sa=3.45e-07
MavI15/avD2_6	avC47	avC5	avI15/avC10	VSS
+ nmos1v#20ivpcell#20gpdk045	L=4.5e-08	W=1.2e-07
+ AD=1.92e-14	AS=1.92e-14	PD=5.4e-07	PS=5.4e-07
+ scc=1.774398e-40 scb=3.622179e-20 sca=1.684715e-01 sb=3.45e-07 sa=1.4e-07
MavI14/avD2_1	avI14/avC10	CLK1pt6G	avI14/avC9	VSS
+ nmos1v#20ivpcell#20gpdk045	L=4.5e-08	W=1.2e-07
+ AD=1.68e-14	AS=1.68e-14	PD=5.4e-07	PS=5.4e-07
+ scc=2.180908e-37 scb=9.186922e-19 sca=1.723171e-01 sb=1.4e-07 sa=3.45e-07
MavI14/avD2_2	avI14/avC9	avI14/avC11	VSS	VSS
+ nmos1v#20ivpcell#20gpdk045	L=4.5e-08	W=1.2e-07
+ AD=1.92e-14	AS=1.92e-14	PD=5.4e-07	PS=5.4e-07
+ scc=2.180908e-37 scb=9.186922e-19 sca=1.723171e-01 sb=3.45e-07 sa=1.4e-07
MavI14/avD2_3	avI14/avC11	avC12	avI14/avC8	VSS
+ nmos1v#20ivpcell#20gpdk045	L=4.5e-08	W=1.2e-07
+ AD=1.68e-14	AS=1.68e-14	PD=5.4e-07	PS=5.4e-07
+ scc=2.180908e-37 scb=9.186922e-19 sca=1.723171e-01 sb=1.4e-07 sa=3.45e-07
MavI14/avD2_4	avI14/avC8	avC45	VSS	VSS
+ nmos1v#20ivpcell#20gpdk045	L=4.5e-08	W=1.2e-07
+ AD=1.92e-14	AS=1.92e-14	PD=5.4e-07	PS=5.4e-07
+ scc=2.180908e-37 scb=9.186922e-19 sca=1.723171e-01 sb=3.45e-07 sa=1.4e-07
MavI14/avD2_5	avC26	avC14	avC46	VSS	nmos1v#20ivpcell#20gpdk045
+ L=4.5e-08	W=1.2e-07
+ AD=1.68e-14	AS=1.68e-14	PD=5.4e-07	PS=5.4e-07
+ scc=1.602012e-40 scb=2.797454e-20 sca=1.642093e-01 sb=1.4e-07 sa=3.45e-07
MavI14/avD2_6	avC46	avC5	avI14/avC10	VSS
+ nmos1v#20ivpcell#20gpdk045	L=4.5e-08	W=1.2e-07
+ AD=1.92e-14	AS=1.92e-14	PD=5.4e-07	PS=5.4e-07
+ scc=1.602012e-40 scb=2.797454e-20 sca=1.642093e-01 sb=3.45e-07 sa=1.4e-07
MavI13/avD2_1	avI13/avC10	CLK1pt6G	avI13/avC9	VSS
+ nmos1v#20ivpcell#20gpdk045	L=4.5e-08	W=1.2e-07
+ AD=1.68e-14	AS=1.68e-14	PD=5.4e-07	PS=5.4e-07
+ scc=2.180908e-37 scb=9.186922e-19 sca=1.723171e-01 sb=1.4e-07 sa=3.45e-07
MavI13/avD2_2	avI13/avC9	avI13/avC11	VSS	VSS
+ nmos1v#20ivpcell#20gpdk045	L=4.5e-08	W=1.2e-07
+ AD=1.92e-14	AS=1.92e-14	PD=5.4e-07	PS=5.4e-07
+ scc=2.180908e-37 scb=9.186922e-19 sca=1.723171e-01 sb=3.45e-07 sa=1.4e-07
MavI13/avD2_3	avI13/avC11	avC12	avI13/avC8	VSS
+ nmos1v#20ivpcell#20gpdk045	L=4.5e-08	W=1.2e-07
+ AD=1.68e-14	AS=1.68e-14	PD=5.4e-07	PS=5.4e-07
+ scc=2.180908e-37 scb=9.186922e-19 sca=1.723171e-01 sb=1.4e-07 sa=3.45e-07
MavI13/avD2_4	avI13/avC8	avC44	VSS	VSS
+ nmos1v#20ivpcell#20gpdk045	L=4.5e-08	W=1.2e-07
+ AD=1.92e-14	AS=1.92e-14	PD=5.4e-07	PS=5.4e-07
+ scc=2.180908e-37 scb=9.186922e-19 sca=1.723171e-01 sb=3.45e-07 sa=1.4e-07
MavI13/avD2_5	avC25	avC14	avC45	VSS	nmos1v#20ivpcell#20gpdk045
+ L=4.5e-08	W=1.2e-07
+ AD=1.68e-14	AS=1.68e-14	PD=5.4e-07	PS=5.4e-07
+ scc=1.602012e-40 scb=2.797454e-20 sca=1.642093e-01 sb=1.4e-07 sa=3.45e-07
MavI13/avD2_6	avC45	avC5	avI13/avC10	VSS
+ nmos1v#20ivpcell#20gpdk045	L=4.5e-08	W=1.2e-07
+ AD=1.92e-14	AS=1.92e-14	PD=5.4e-07	PS=5.4e-07
+ scc=1.602012e-40 scb=2.797454e-20 sca=1.642093e-01 sb=3.45e-07 sa=1.4e-07
MavI12/avD2_1	avI12/avC10	CLK1pt6G	avI12/avC9	VSS
+ nmos1v#20ivpcell#20gpdk045	L=4.5e-08	W=1.2e-07
+ AD=1.68e-14	AS=1.68e-14	PD=5.4e-07	PS=5.4e-07
+ scc=2.180908e-37 scb=9.186922e-19 sca=1.723171e-01 sb=1.4e-07 sa=3.45e-07
MavI12/avD2_2	avI12/avC9	avI12/avC11	VSS	VSS
+ nmos1v#20ivpcell#20gpdk045	L=4.5e-08	W=1.2e-07
+ AD=1.92e-14	AS=1.92e-14	PD=5.4e-07	PS=5.4e-07
+ scc=2.180908e-37 scb=9.186922e-19 sca=1.723171e-01 sb=3.45e-07 sa=1.4e-07
MavI12/avD2_3	avI12/avC11	avC12	avI12/avC8	VSS
+ nmos1v#20ivpcell#20gpdk045	L=4.5e-08	W=1.2e-07
+ AD=1.68e-14	AS=1.68e-14	PD=5.4e-07	PS=5.4e-07
+ scc=2.180908e-37 scb=9.186922e-19 sca=1.723171e-01 sb=1.4e-07 sa=3.45e-07
MavI12/avD2_4	avI12/avC8	avC43	VSS	VSS
+ nmos1v#20ivpcell#20gpdk045	L=4.5e-08	W=1.2e-07
+ AD=1.92e-14	AS=1.92e-14	PD=5.4e-07	PS=5.4e-07
+ scc=2.180908e-37 scb=9.186922e-19 sca=1.723171e-01 sb=3.45e-07 sa=1.4e-07
MavI12/avD2_5	avC24	avC14	avC44	VSS	nmos1v#20ivpcell#20gpdk045
+ L=4.5e-08	W=1.2e-07
+ AD=1.68e-14	AS=1.68e-14	PD=5.4e-07	PS=5.4e-07
+ scc=1.602012e-40 scb=2.797454e-20 sca=1.642093e-01 sb=1.4e-07 sa=3.45e-07
MavI12/avD2_6	avC44	avC5	avI12/avC10	VSS
+ nmos1v#20ivpcell#20gpdk045	L=4.5e-08	W=1.2e-07
+ AD=1.92e-14	AS=1.92e-14	PD=5.4e-07	PS=5.4e-07
+ scc=1.602012e-40 scb=2.797454e-20 sca=1.642093e-01 sb=3.45e-07 sa=1.4e-07
MavI11/avD2_1	avI11/avC10	CLK1pt6G	avI11/avC9	VSS
+ nmos1v#20ivpcell#20gpdk045	L=4.5e-08	W=1.2e-07
+ AD=1.68e-14	AS=1.68e-14	PD=5.4e-07	PS=5.4e-07
+ scc=2.180908e-37 scb=9.186922e-19 sca=1.723171e-01 sb=1.4e-07 sa=3.45e-07
MavI11/avD2_2	avI11/avC9	avI11/avC11	VSS	VSS
+ nmos1v#20ivpcell#20gpdk045	L=4.5e-08	W=1.2e-07
+ AD=1.92e-14	AS=1.92e-14	PD=5.4e-07	PS=5.4e-07
+ scc=2.180908e-37 scb=9.186922e-19 sca=1.723171e-01 sb=3.45e-07 sa=1.4e-07
MavI11/avD2_3	avI11/avC11	avC12	avI11/avC8	VSS
+ nmos1v#20ivpcell#20gpdk045	L=4.5e-08	W=1.2e-07
+ AD=1.68e-14	AS=1.68e-14	PD=5.4e-07	PS=5.4e-07
+ scc=2.180908e-37 scb=9.186922e-19 sca=1.723171e-01 sb=1.4e-07 sa=3.45e-07
MavI11/avD2_4	avI11/avC8	avC42	VSS	VSS
+ nmos1v#20ivpcell#20gpdk045	L=4.5e-08	W=1.2e-07
+ AD=1.92e-14	AS=1.92e-14	PD=5.4e-07	PS=5.4e-07
+ scc=2.180908e-37 scb=9.186922e-19 sca=1.723171e-01 sb=3.45e-07 sa=1.4e-07
MavI11/avD2_5	avC23	avC14	avC43	VSS	nmos1v#20ivpcell#20gpdk045
+ L=4.5e-08	W=1.2e-07
+ AD=1.68e-14	AS=1.68e-14	PD=5.4e-07	PS=5.4e-07
+ scc=1.602012e-40 scb=2.797454e-20 sca=1.642093e-01 sb=1.4e-07 sa=3.45e-07
MavI11/avD2_6	avC43	avC5	avI11/avC10	VSS
+ nmos1v#20ivpcell#20gpdk045	L=4.5e-08	W=1.2e-07
+ AD=1.92e-14	AS=1.92e-14	PD=5.4e-07	PS=5.4e-07
+ scc=1.602012e-40 scb=2.797454e-20 sca=1.642093e-01 sb=3.45e-07 sa=1.4e-07
MavI10/avD2_1	avI10/avC10	CLK1pt6G	avI10/avC9	VSS
+ nmos1v#20ivpcell#20gpdk045	L=4.5e-08	W=1.2e-07
+ AD=1.68e-14	AS=1.68e-14	PD=5.4e-07	PS=5.4e-07
+ scc=2.180908e-37 scb=9.186922e-19 sca=1.723171e-01 sb=1.4e-07 sa=3.45e-07
MavI10/avD2_2	avI10/avC9	avI10/avC11	VSS	VSS
+ nmos1v#20ivpcell#20gpdk045	L=4.5e-08	W=1.2e-07
+ AD=1.92e-14	AS=1.92e-14	PD=5.4e-07	PS=5.4e-07
+ scc=2.180908e-37 scb=9.186922e-19 sca=1.723171e-01 sb=3.45e-07 sa=1.4e-07
MavI10/avD2_3	avI10/avC11	avC12	avI10/avC8	VSS
+ nmos1v#20ivpcell#20gpdk045	L=4.5e-08	W=1.2e-07
+ AD=1.68e-14	AS=1.68e-14	PD=5.4e-07	PS=5.4e-07
+ scc=2.180908e-37 scb=9.186922e-19 sca=1.723171e-01 sb=1.4e-07 sa=3.45e-07
MavI10/avD2_4	avI10/avC8	avC41	VSS	VSS
+ nmos1v#20ivpcell#20gpdk045	L=4.5e-08	W=1.2e-07
+ AD=1.92e-14	AS=1.92e-14	PD=5.4e-07	PS=5.4e-07
+ scc=2.180908e-37 scb=9.186922e-19 sca=1.723171e-01 sb=3.45e-07 sa=1.4e-07
MavI10/avD2_5	avC22	avC14	avC42	VSS	nmos1v#20ivpcell#20gpdk045
+ L=4.5e-08	W=1.2e-07
+ AD=1.68e-14	AS=1.68e-14	PD=5.4e-07	PS=5.4e-07
+ scc=1.602012e-40 scb=2.797454e-20 sca=1.642093e-01 sb=1.4e-07 sa=3.45e-07
MavI10/avD2_6	avC42	avC5	avI10/avC10	VSS
+ nmos1v#20ivpcell#20gpdk045	L=4.5e-08	W=1.2e-07
+ AD=1.92e-14	AS=1.92e-14	PD=5.4e-07	PS=5.4e-07
+ scc=1.602012e-40 scb=2.797454e-20 sca=1.642093e-01 sb=3.45e-07 sa=1.4e-07
MavI9/avD2_1	avI9/avC10	CLK1pt6G	avI9/avC9	VSS
+ nmos1v#20ivpcell#20gpdk045	L=4.5e-08	W=1.2e-07
+ AD=1.68e-14	AS=1.68e-14	PD=5.4e-07	PS=5.4e-07
+ scc=2.180908e-37 scb=9.186922e-19 sca=1.723171e-01 sb=1.4e-07 sa=3.45e-07
MavI9/avD2_2	avI9/avC9	avI9/avC11	VSS	VSS
+ nmos1v#20ivpcell#20gpdk045	L=4.5e-08	W=1.2e-07
+ AD=1.92e-14	AS=1.92e-14	PD=5.4e-07	PS=5.4e-07
+ scc=2.180908e-37 scb=9.186922e-19 sca=1.723171e-01 sb=3.45e-07 sa=1.4e-07
MavI9/avD2_3	avI9/avC11	avC12	avI9/avC8	VSS
+ nmos1v#20ivpcell#20gpdk045	L=4.5e-08	W=1.2e-07
+ AD=1.68e-14	AS=1.68e-14	PD=5.4e-07	PS=5.4e-07
+ scc=2.180908e-37 scb=9.186922e-19 sca=1.723171e-01 sb=1.4e-07 sa=3.45e-07
MavI9/avD2_4	avI9/avC8	avC40	VSS	VSS
+ nmos1v#20ivpcell#20gpdk045	L=4.5e-08	W=1.2e-07
+ AD=1.92e-14	AS=1.92e-14	PD=5.4e-07	PS=5.4e-07
+ scc=2.180908e-37 scb=9.186922e-19 sca=1.723171e-01 sb=3.45e-07 sa=1.4e-07
MavI9/avD2_5	avC21	avC14	avC41	VSS	nmos1v#20ivpcell#20gpdk045
+ L=4.5e-08	W=1.2e-07
+ AD=1.68e-14	AS=1.68e-14	PD=5.4e-07	PS=5.4e-07
+ scc=1.602012e-40 scb=2.797454e-20 sca=1.642093e-01 sb=1.4e-07 sa=3.45e-07
MavI9/avD2_6	avC41	avC5	avI9/avC10	VSS
+ nmos1v#20ivpcell#20gpdk045	L=4.5e-08	W=1.2e-07
+ AD=1.92e-14	AS=1.92e-14	PD=5.4e-07	PS=5.4e-07
+ scc=1.602012e-40 scb=2.797454e-20 sca=1.642093e-01 sb=3.45e-07 sa=1.4e-07
MavI8/avD2_1	avI8/avC10	CLK1pt6G	avI8/avC9	VSS
+ nmos1v#20ivpcell#20gpdk045	L=4.5e-08	W=1.2e-07
+ AD=1.68e-14	AS=1.68e-14	PD=5.4e-07	PS=5.4e-07
+ scc=2.180908e-37 scb=9.186922e-19 sca=1.723171e-01 sb=1.4e-07 sa=3.45e-07
MavI8/avD2_2	avI8/avC9	avI8/avC11	VSS	VSS
+ nmos1v#20ivpcell#20gpdk045	L=4.5e-08	W=1.2e-07
+ AD=1.92e-14	AS=1.92e-14	PD=5.4e-07	PS=5.4e-07
+ scc=2.180908e-37 scb=9.186922e-19 sca=1.723171e-01 sb=3.45e-07 sa=1.4e-07
MavI8/avD2_3	avI8/avC11	avC12	avI8/avC8	VSS
+ nmos1v#20ivpcell#20gpdk045	L=4.5e-08	W=1.2e-07
+ AD=1.68e-14	AS=1.68e-14	PD=5.4e-07	PS=5.4e-07
+ scc=2.180908e-37 scb=9.186922e-19 sca=1.723171e-01 sb=1.4e-07 sa=3.45e-07
MavI8/avD2_4	avI8/avC8	avC39	VSS	VSS
+ nmos1v#20ivpcell#20gpdk045	L=4.5e-08	W=1.2e-07
+ AD=1.92e-14	AS=1.92e-14	PD=5.4e-07	PS=5.4e-07
+ scc=2.180908e-37 scb=9.186922e-19 sca=1.723171e-01 sb=3.45e-07 sa=1.4e-07
MavI8/avD2_5	avC20	avC14	avC40	VSS	nmos1v#20ivpcell#20gpdk045
+ L=4.5e-08	W=1.2e-07
+ AD=1.68e-14	AS=1.68e-14	PD=5.4e-07	PS=5.4e-07
+ scc=1.602012e-40 scb=2.797454e-20 sca=1.642093e-01 sb=1.4e-07 sa=3.45e-07
MavI8/avD2_6	avC40	avC5	avI8/avC10	VSS
+ nmos1v#20ivpcell#20gpdk045	L=4.5e-08	W=1.2e-07
+ AD=1.92e-14	AS=1.92e-14	PD=5.4e-07	PS=5.4e-07
+ scc=1.602012e-40 scb=2.797454e-20 sca=1.642093e-01 sb=3.45e-07 sa=1.4e-07
MavI7/avD2_1	avI7/avC10	CLK1pt6G	avI7/avC9	VSS
+ nmos1v#20ivpcell#20gpdk045	L=4.5e-08	W=1.2e-07
+ AD=1.68e-14	AS=1.68e-14	PD=5.4e-07	PS=5.4e-07
+ scc=2.180908e-37 scb=9.186922e-19 sca=1.723171e-01 sb=1.4e-07 sa=3.45e-07
MavI7/avD2_2	avI7/avC9	avI7/avC11	VSS	VSS
+ nmos1v#20ivpcell#20gpdk045	L=4.5e-08	W=1.2e-07
+ AD=1.92e-14	AS=1.92e-14	PD=5.4e-07	PS=5.4e-07
+ scc=2.180908e-37 scb=9.186922e-19 sca=1.723171e-01 sb=3.45e-07 sa=1.4e-07
MavI7/avD2_3	avI7/avC11	avC12	avI7/avC8	VSS
+ nmos1v#20ivpcell#20gpdk045	L=4.5e-08	W=1.2e-07
+ AD=1.68e-14	AS=1.68e-14	PD=5.4e-07	PS=5.4e-07
+ scc=2.180908e-37 scb=9.186922e-19 sca=1.723171e-01 sb=1.4e-07 sa=3.45e-07
MavI7/avD2_4	avI7/avC8	avC38	VSS	VSS
+ nmos1v#20ivpcell#20gpdk045	L=4.5e-08	W=1.2e-07
+ AD=1.92e-14	AS=1.92e-14	PD=5.4e-07	PS=5.4e-07
+ scc=2.180908e-37 scb=9.186922e-19 sca=1.723171e-01 sb=3.45e-07 sa=1.4e-07
MavI7/avD2_5	avC19	avC14	avC39	VSS	nmos1v#20ivpcell#20gpdk045
+ L=4.5e-08	W=1.2e-07
+ AD=1.68e-14	AS=1.68e-14	PD=5.4e-07	PS=5.4e-07
+ scc=1.602012e-40 scb=2.797454e-20 sca=1.642093e-01 sb=1.4e-07 sa=3.45e-07
MavI7/avD2_6	avC39	avC5	avI7/avC10	VSS
+ nmos1v#20ivpcell#20gpdk045	L=4.5e-08	W=1.2e-07
+ AD=1.92e-14	AS=1.92e-14	PD=5.4e-07	PS=5.4e-07
+ scc=1.602012e-40 scb=2.797454e-20 sca=1.642093e-01 sb=3.45e-07 sa=1.4e-07
MavI6/avD2_1	avI6/avC10	CLK1pt6G	avI6/avC9	VSS
+ nmos1v#20ivpcell#20gpdk045	L=4.5e-08	W=1.2e-07
+ AD=1.68e-14	AS=1.68e-14	PD=5.4e-07	PS=5.4e-07
+ scc=2.180908e-37 scb=9.186922e-19 sca=1.723171e-01 sb=1.4e-07 sa=3.45e-07
MavI6/avD2_2	avI6/avC9	avI6/avC11	VSS	VSS
+ nmos1v#20ivpcell#20gpdk045	L=4.5e-08	W=1.2e-07
+ AD=1.92e-14	AS=1.92e-14	PD=5.4e-07	PS=5.4e-07
+ scc=2.180908e-37 scb=9.186922e-19 sca=1.723171e-01 sb=3.45e-07 sa=1.4e-07
MavI6/avD2_3	avI6/avC11	avC12	avI6/avC8	VSS
+ nmos1v#20ivpcell#20gpdk045	L=4.5e-08	W=1.2e-07
+ AD=1.68e-14	AS=1.68e-14	PD=5.4e-07	PS=5.4e-07
+ scc=2.180908e-37 scb=9.186922e-19 sca=1.723171e-01 sb=1.4e-07 sa=3.45e-07
MavI6/avD2_4	avI6/avC8	avC37	VSS	VSS
+ nmos1v#20ivpcell#20gpdk045	L=4.5e-08	W=1.2e-07
+ AD=1.92e-14	AS=1.92e-14	PD=5.4e-07	PS=5.4e-07
+ scc=2.180908e-37 scb=9.186922e-19 sca=1.723171e-01 sb=3.45e-07 sa=1.4e-07
MavI6/avD2_5	avC18	avC14	avC38	VSS	nmos1v#20ivpcell#20gpdk045
+ L=4.5e-08	W=1.2e-07
+ AD=1.68e-14	AS=1.68e-14	PD=5.4e-07	PS=5.4e-07
+ scc=1.602012e-40 scb=2.797454e-20 sca=1.642093e-01 sb=1.4e-07 sa=3.45e-07
MavI6/avD2_6	avC38	avC5	avI6/avC10	VSS
+ nmos1v#20ivpcell#20gpdk045	L=4.5e-08	W=1.2e-07
+ AD=1.92e-14	AS=1.92e-14	PD=5.4e-07	PS=5.4e-07
+ scc=1.602012e-40 scb=2.797454e-20 sca=1.642093e-01 sb=3.45e-07 sa=1.4e-07
MavI5/avD2_1	avI5/avC10	CLK1pt6G	avI5/avC9	VSS
+ nmos1v#20ivpcell#20gpdk045	L=4.5e-08	W=1.2e-07
+ AD=1.68e-14	AS=1.68e-14	PD=5.4e-07	PS=5.4e-07
+ scc=2.180908e-37 scb=9.186922e-19 sca=1.723171e-01 sb=1.4e-07 sa=3.45e-07
MavI5/avD2_2	avI5/avC9	avI5/avC11	VSS	VSS
+ nmos1v#20ivpcell#20gpdk045	L=4.5e-08	W=1.2e-07
+ AD=1.92e-14	AS=1.92e-14	PD=5.4e-07	PS=5.4e-07
+ scc=2.180908e-37 scb=9.186922e-19 sca=1.723171e-01 sb=3.45e-07 sa=1.4e-07
MavI5/avD2_3	avI5/avC11	avC12	avI5/avC8	VSS
+ nmos1v#20ivpcell#20gpdk045	L=4.5e-08	W=1.2e-07
+ AD=1.68e-14	AS=1.68e-14	PD=5.4e-07	PS=5.4e-07
+ scc=2.180908e-37 scb=9.186922e-19 sca=1.723171e-01 sb=1.4e-07 sa=3.45e-07
MavI5/avD2_4	avI5/avC8	avC36	VSS	VSS
+ nmos1v#20ivpcell#20gpdk045	L=4.5e-08	W=1.2e-07
+ AD=1.92e-14	AS=1.92e-14	PD=5.4e-07	PS=5.4e-07
+ scc=2.180908e-37 scb=9.186922e-19 sca=1.723171e-01 sb=3.45e-07 sa=1.4e-07
MavI5/avD2_5	avC17	avC14	avC37	VSS	nmos1v#20ivpcell#20gpdk045
+ L=4.5e-08	W=1.2e-07
+ AD=1.68e-14	AS=1.68e-14	PD=5.4e-07	PS=5.4e-07
+ scc=1.602012e-40 scb=2.797454e-20 sca=1.642093e-01 sb=1.4e-07 sa=3.45e-07
MavI5/avD2_6	avC37	avC5	avI5/avC10	VSS
+ nmos1v#20ivpcell#20gpdk045	L=4.5e-08	W=1.2e-07
+ AD=1.92e-14	AS=1.92e-14	PD=5.4e-07	PS=5.4e-07
+ scc=1.602012e-40 scb=2.797454e-20 sca=1.642093e-01 sb=3.45e-07 sa=1.4e-07
MavI4/avD2_1	avI4/avC10	CLK1pt6G	avI4/avC9	VSS
+ nmos1v#20ivpcell#20gpdk045	L=4.5e-08	W=1.2e-07
+ AD=1.68e-14	AS=1.68e-14	PD=5.4e-07	PS=5.4e-07
+ scc=2.180908e-37 scb=9.186922e-19 sca=1.723171e-01 sb=1.4e-07 sa=3.45e-07
MavI4/avD2_2	avI4/avC9	avI4/avC11	VSS	VSS
+ nmos1v#20ivpcell#20gpdk045	L=4.5e-08	W=1.2e-07
+ AD=1.92e-14	AS=1.92e-14	PD=5.4e-07	PS=5.4e-07
+ scc=2.180908e-37 scb=9.186922e-19 sca=1.723171e-01 sb=3.45e-07 sa=1.4e-07
MavI4/avD2_3	avI4/avC11	avC12	avI4/avC8	VSS
+ nmos1v#20ivpcell#20gpdk045	L=4.5e-08	W=1.2e-07
+ AD=1.68e-14	AS=1.68e-14	PD=5.4e-07	PS=5.4e-07
+ scc=2.180908e-37 scb=9.186922e-19 sca=1.723171e-01 sb=1.4e-07 sa=3.45e-07
MavI4/avD2_4	avI4/avC8	avC35	VSS	VSS
+ nmos1v#20ivpcell#20gpdk045	L=4.5e-08	W=1.2e-07
+ AD=1.92e-14	AS=1.92e-14	PD=5.4e-07	PS=5.4e-07
+ scc=2.180908e-37 scb=9.186922e-19 sca=1.723171e-01 sb=3.45e-07 sa=1.4e-07
MavI4/avD2_5	avC16	avC14	avC36	VSS	nmos1v#20ivpcell#20gpdk045
+ L=4.5e-08	W=1.2e-07
+ AD=1.68e-14	AS=1.68e-14	PD=5.4e-07	PS=5.4e-07
+ scc=1.602012e-40 scb=2.797454e-20 sca=1.642093e-01 sb=1.4e-07 sa=3.45e-07
MavI4/avD2_6	avC36	avC5	avI4/avC10	VSS
+ nmos1v#20ivpcell#20gpdk045	L=4.5e-08	W=1.2e-07
+ AD=1.92e-14	AS=1.92e-14	PD=5.4e-07	PS=5.4e-07
+ scc=1.602012e-40 scb=2.797454e-20 sca=1.642093e-01 sb=3.45e-07 sa=1.4e-07
MavI3/avD2_1	avI3/avC10	CLK1pt6G	avI3/avC9	VSS
+ nmos1v#20ivpcell#20gpdk045	L=4.5e-08	W=1.2e-07
+ AD=1.68e-14	AS=1.68e-14	PD=5.4e-07	PS=5.4e-07
+ scc=2.180908e-37 scb=9.186922e-19 sca=1.723171e-01 sb=1.4e-07 sa=3.45e-07
MavI3/avD2_2	avI3/avC9	avI3/avC11	VSS	VSS
+ nmos1v#20ivpcell#20gpdk045	L=4.5e-08	W=1.2e-07
+ AD=1.92e-14	AS=1.92e-14	PD=5.4e-07	PS=5.4e-07
+ scc=2.180908e-37 scb=9.186922e-19 sca=1.723171e-01 sb=3.45e-07 sa=1.4e-07
MavI3/avD2_3	avI3/avC11	avC12	avI3/avC8	VSS
+ nmos1v#20ivpcell#20gpdk045	L=4.5e-08	W=1.2e-07
+ AD=1.68e-14	AS=1.68e-14	PD=5.4e-07	PS=5.4e-07
+ scc=2.180908e-37 scb=9.186922e-19 sca=1.723171e-01 sb=1.4e-07 sa=3.45e-07
MavI3/avD2_4	avI3/avC8	avC4	VSS	VSS
+ nmos1v#20ivpcell#20gpdk045	L=4.5e-08	W=1.2e-07
+ AD=1.92e-14	AS=1.92e-14	PD=5.4e-07	PS=5.4e-07
+ scc=2.180908e-37 scb=9.186922e-19 sca=1.723171e-01 sb=3.45e-07 sa=1.4e-07
MavI3/avD2_5	avC15	avC14	avC35	VSS	nmos1v#20ivpcell#20gpdk045
+ L=4.5e-08	W=1.2e-07
+ AD=1.68e-14	AS=1.68e-14	PD=5.4e-07	PS=5.4e-07
+ scc=1.602012e-40 scb=2.797454e-20 sca=1.642093e-01 sb=1.4e-07 sa=3.45e-07
MavI3/avD2_6	avC35	avC5	avI3/avC10	VSS
+ nmos1v#20ivpcell#20gpdk045	L=4.5e-08	W=1.2e-07
+ AD=1.92e-14	AS=1.92e-14	PD=5.4e-07	PS=5.4e-07
+ scc=1.602012e-40 scb=2.797454e-20 sca=1.642093e-01 sb=3.45e-07 sa=1.4e-07
MI4/avD2_1	avC12	CLK1pt6G	VSS	VSS
+ nmos1v#20ivpcell#20gpdk045	L=4.5e-08	W=4.8e-07
+ AD=7.68e-14	AS=7.68e-14	PD=1.28e-06	PS=1.28e-06
+ scc=1.902926e-19 scb=4.163964e-10 sca=3.307981e-01 sb=1.575e-06 sa=1.78e-06
MI4/avD2_2	VSS	CLK1pt6G	avC12	VSS
+ nmos1v#20ivpcell#20gpdk045	L=4.5e-08	W=4.8e-07
+ AD=7.68e-14	AS=7.68e-14	PD=1.28e-06	PS=1.28e-06
+ scc=1.902926e-19 scb=4.163963e-10 sca=3.242364e-01 sb=1.37e-06 sa=1.985e-06
MI4/avD2_3	avC12	CLK1pt6G	VSS	VSS
+ nmos1v#20ivpcell#20gpdk045	L=4.5e-08	W=4.8e-07
+ AD=7.68e-14	AS=7.68e-14	PD=1.28e-06	PS=1.28e-06
+ scc=1.902926e-19 scb=4.163963e-10 sca=3.185953e-01 sb=1.165e-06 sa=2.19e-06
MI4/avD2_4	VSS	CLK1pt6G	avC12	VSS
+ nmos1v#20ivpcell#20gpdk045	L=4.5e-08	W=4.8e-07
+ AD=7.68e-14	AS=7.68e-14	PD=1.28e-06	PS=1.28e-06
+ scc=1.902926e-19 scb=4.163963e-10 sca=3.137104e-01 sb=9.6e-07 sa=2.395e-06
MI4/avD2_5	avC12	CLK1pt6G	VSS	VSS
+ nmos1v#20ivpcell#20gpdk045	L=4.5e-08	W=4.8e-07
+ AD=7.68e-14	AS=7.68e-14	PD=1.28e-06	PS=1.28e-06
+ scc=1.902926e-19 scb=4.163963e-10 sca=3.094522e-01 sb=7.55e-07 sa=2.6e-06
MI4/avD2_6	VSS	CLK1pt6G	avC12	VSS
+ nmos1v#20ivpcell#20gpdk045	L=4.5e-08	W=4.8e-07
+ AD=7.68e-14	AS=7.68e-14	PD=1.28e-06	PS=1.28e-06
+ scc=1.902926e-19 scb=4.163963e-10 sca=3.057180e-01 sb=5.5e-07 sa=2.805e-06
MI4/avD2_7	avC12	CLK1pt6G	VSS	VSS
+ nmos1v#20ivpcell#20gpdk045	L=4.5e-08	W=4.8e-07
+ AD=7.68e-14	AS=7.68e-14	PD=1.28e-06	PS=1.28e-06
+ scc=1.902926e-19 scb=4.163963e-10 sca=3.035833e-01 sb=3.45e-07 sa=3.01e-06
MI4/avD2_8	VSS	CLK1pt6G	avC12	VSS
+ nmos1v#20ivpcell#20gpdk045	L=4.5e-08	W=4.8e-07
+ AD=6.72e-14	AS=6.72e-14	PD=1.26e-06	PS=1.26e-06
+ scc=1.902926e-19 scb=4.163963e-10 sca=3.035833e-01 sb=1.4e-07 sa=3.215e-06
MI4/avD2_9	avC12	CLK1pt6G	VSS	VSS
+ nmos1v#20ivpcell#20gpdk045	L=4.5e-08	W=4.8e-07
+ AD=7.68e-14	AS=7.68e-14	PD=1.26e-06	PS=1.26e-06
+ scc=2.935470e-19 scb=8.919924e-10 sca=4.655021e-01 sb=3.215e-06 sa=1.4e-07
MI4/avD2_10	VSS	CLK1pt6G	avC12	VSS
+ nmos1v#20ivpcell#20gpdk045	L=4.5e-08	W=4.8e-07
+ AD=7.68e-14	AS=7.68e-14	PD=1.28e-06	PS=1.28e-06
+ scc=1.921615e-19 scb=4.832611e-10 sca=4.329575e-01 sb=3.01e-06 sa=3.45e-07
MI4/avD2_11	avC12	CLK1pt6G	VSS	VSS
+ nmos1v#20ivpcell#20gpdk045	L=4.5e-08	W=4.8e-07
+ AD=7.68e-14	AS=7.68e-14	PD=1.28e-06	PS=1.28e-06
+ scc=1.903262e-19 scb=4.257301e-10 sca=4.077029e-01 sb=2.805e-06 sa=5.5e-07
MI4/avD2_12	VSS	CLK1pt6G	avC12	VSS
+ nmos1v#20ivpcell#20gpdk045	L=4.5e-08	W=4.8e-07
+ AD=7.68e-14	AS=7.68e-14	PD=1.28e-06	PS=1.28e-06
+ scc=1.902932e-19 scb=4.176914e-10 sca=3.877131e-01 sb=2.6e-06 sa=7.55e-07
MI4/avD2_13	avC12	CLK1pt6G	VSS	VSS
+ nmos1v#20ivpcell#20gpdk045	L=4.5e-08	W=4.8e-07
+ AD=7.68e-14	AS=7.68e-14	PD=1.28e-06	PS=1.28e-06
+ scc=1.902926e-19 scb=4.165751e-10 sca=3.716203e-01 sb=2.395e-06 sa=9.6e-07
MI4/avD2_14	VSS	CLK1pt6G	avC12	VSS
+ nmos1v#20ivpcell#20gpdk045	L=4.5e-08	W=4.8e-07
+ AD=7.68e-14	AS=7.68e-14	PD=1.28e-06	PS=1.28e-06
+ scc=1.902926e-19 scb=4.164209e-10 sca=3.584736e-01 sb=2.19e-06 sa=1.165e-06
MI4/avD2_15	avC12	CLK1pt6G	VSS	VSS
+ nmos1v#20ivpcell#20gpdk045	L=4.5e-08	W=4.8e-07
[...]
+ pmos1v#20ivpcell#20gpdk045	L=4.5e-08	W=9.6e-07
+ AD=1.536e-13	AS=1.536e-13	PD=2.24e-06	PS=2.24e-06
+ scc=3.451184e-03 scb=1.828539e-02 sca=3.311484e+01 sb=1.37e-06 sa=1.985e-06
MI3/avD10_3	avC34	CLK1pt6G	VDD	VDD
+ pmos1v#20ivpcell#20gpdk045	L=4.5e-08	W=9.6e-07
+ AD=1.536e-13	AS=1.536e-13	PD=2.24e-06	PS=2.24e-06
+ scc=3.451184e-03 scb=1.828730e-02 sca=3.316416e+01 sb=1.165e-06 sa=2.19e-06
MI3/avD10_4	VDD	CLK1pt6G	avC34	VDD
+ pmos1v#20ivpcell#20gpdk045	L=4.5e-08	W=9.6e-07
+ AD=1.536e-13	AS=1.536e-13	PD=2.24e-06	PS=2.24e-06
+ scc=3.451184e-03 scb=1.829965e-02 sca=3.327130e+01 sb=9.6e-07 sa=2.395e-06
MI3/avD10_5	avC34	CLK1pt6G	VDD	VDD
+ pmos1v#20ivpcell#20gpdk045	L=4.5e-08	W=9.6e-07
+ AD=1.536e-13	AS=1.536e-13	PD=2.24e-06	PS=2.24e-06
+ scc=3.451205e-03 scb=1.837614e-02 sca=3.349040e+01 sb=7.55e-07 sa=2.6e-06
MI3/avD10_6	VDD	CLK1pt6G	avC34	VDD
+ pmos1v#20ivpcell#20gpdk045	L=4.5e-08	W=9.6e-07
+ AD=1.536e-13	AS=1.536e-13	PD=2.24e-06	PS=2.24e-06
+ scc=3.452162e-03 scb=1.881911e-02 sca=3.398031e+01 sb=5.5e-07 sa=2.805e-06
MI3/avD10_7	avC34	CLK1pt6G	VDD	VDD
+ pmos1v#20ivpcell#20gpdk045	L=4.5e-08	W=9.6e-07
+ AD=1.536e-13	AS=1.536e-13	PD=2.24e-06	PS=2.24e-06
+ scc=3.490978e-03 scb=2.108541e-02 sca=3.536748e+01 sb=3.45e-07 sa=3.01e-06
MI3/avD10_8	VDD	CLK1pt6G	avC34	VDD
+ pmos1v#20ivpcell#20gpdk045	L=4.5e-08	W=9.6e-07
+ AD=1.344e-13	AS=1.344e-13	PD=2.22e-06	PS=2.22e-06
+ scc=4.691896e-03 scb=2.956557e-02 sca=4.235239e+01 sb=1.4e-07 sa=3.215e-06
MI3/avD10_9	avC34	CLK1pt6G	VDD	VDD
+ pmos1v#20ivpcell#20gpdk045	L=4.5e-08	W=9.6e-07
+ AD=1.536e-13	AS=1.536e-13	PD=2.22e-06	PS=2.22e-06
+ scc=3.809973e-03 scb=2.469865e-02 sca=3.906161e+01 sb=3.215e-06 sa=1.4e-07
MI3/avD10_10	VDD	CLK1pt6G	avC34	VDD
+ pmos1v#20ivpcell#20gpdk045	L=4.5e-08	W=9.6e-07
+ AD=1.536e-13	AS=1.536e-13	PD=2.24e-06	PS=2.24e-06
+ scc=3.462456e-03 scb=1.965713e-02 sca=3.528891e+01 sb=3.01e-06 sa=3.45e-07
MI3/avD10_11	avC34	CLK1pt6G	VDD	VDD
+ pmos1v#20ivpcell#20gpdk045	L=4.5e-08	W=9.6e-07
+ AD=1.536e-13	AS=1.536e-13	PD=2.24e-06	PS=2.24e-06
+ scc=3.451459e-03 scb=1.853203e-02 sca=3.416905e+01 sb=2.805e-06 sa=5.5e-07
MI3/avD10_12	VDD	CLK1pt6G	avC34	VDD
+ pmos1v#20ivpcell#20gpdk045	L=4.5e-08	W=9.6e-07
+ AD=1.536e-13	AS=1.536e-13	PD=2.24e-06	PS=2.24e-06
+ scc=3.451190e-03 scb=1.832590e-02 sca=3.367103e+01 sb=2.6e-06 sa=7.55e-07
MI3/avD10_13	avC34	CLK1pt6G	VDD	VDD
+ pmos1v#20ivpcell#20gpdk045	L=4.5e-08	W=9.6e-07
+ AD=1.536e-13	AS=1.536e-13	PD=2.24e-06	PS=2.24e-06
+ scc=3.451184e-03 scb=1.829147e-02 sca=3.340816e+01 sb=2.395e-06 sa=9.6e-07
MI3/avD10_14	VDD	CLK1pt6G	avC34	VDD
+ pmos1v#20ivpcell#20gpdk045	L=4.5e-08	W=9.6e-07
+ AD=1.536e-13	AS=1.536e-13	PD=2.24e-06	PS=2.24e-06
+ scc=3.451184e-03 scb=1.828603e-02 sca=3.325704e+01 sb=2.19e-06 sa=1.165e-06
MI3/avD10_15	avC34	CLK1pt6G	VDD	VDD
+ pmos1v#20ivpcell#20gpdk045	L=4.5e-08	W=9.6e-07
+ AD=1.536e-13	AS=1.536e-13	PD=2.24e-06	PS=2.24e-06
+ scc=3.451184e-03 scb=1.828519e-02 sca=3.316830e+01 sb=1.985e-06 sa=1.37e-06
MI3/avD10_16	VDD	CLK1pt6G	avC34	VDD
+ pmos1v#20ivpcell#20gpdk045	L=4.5e-08	W=9.6e-07
+ AD=1.536e-13	AS=1.536e-13	PD=2.24e-06	PS=2.24e-06
+ scc=3.451184e-03 scb=1.828508e-02 sca=3.311987e+01 sb=1.78e-06 sa=1.575e-06
MavD10_1	avC10	avC33	VDD	VDD	pmos1v#20ivpcell#20gpdk045
+ L=4.5e-08	W=2.4e-07
+ AD=3.84e-14	AS=3.84e-14	PD=7.8e-07	PS=7.8e-07
+ scc=0.00629831 scb=0.044772 sca=47.2306 sb=3.45e-07 sa=1.4e-07
MavD10_2	avC9	CLK1pt6G	avC10	VDD
+ pmos1v#20ivpcell#20gpdk045	L=4.5e-08	W=2.4e-07
+ AD=3.36e-14	AS=3.36e-14	PD=7.8e-07	PS=7.8e-07
+ scc=0.00629835 scb=0.0449151 sca=47.7129 sb=1.4e-07 sa=3.45e-07
MavD10_3	avC11	avC9	VDD	VDD	pmos1v#20ivpcell#20gpdk045
+ L=4.5e-08	W=2.4e-07
+ AD=3.84e-14	AS=3.84e-14	PD=7.8e-07	PS=7.8e-07
+ scc=0.00638321 scb=0.050719 sca=51.8229 sb=3.45e-07 sa=1.4e-07
MavD10_4	OUT	avC12	avC11	VDD	pmos1v#20ivpcell#20gpdk045
+ L=4.5e-08	W=2.4e-07
+ AD=3.36e-14	AS=3.36e-14	PD=7.8e-07	PS=7.8e-07
+ scc=0.00894517 scb=0.06881 sca=66.7441 sb=1.4e-07 sa=3.45e-07
*
*
*       CAPACITOR CARDS
*
*
C1	VDD	VSS	6.13627e-14	$X=7.597 $Y=4.359
C2	CLK1pt6G	VSS	1.86804e-14	$X=9.546 $Y=3.963
C3	EN	VSS	7.94579e-15	$X=9.3075 $Y=7.0355
C4	EN_b	VSS	6.14821e-15	$X=9.1035 $Y=7.096
C5	rst	VSS	1.6801e-14	$X=8.2655 $Y=8.978
C6	rst_b	VSS	7.60324e-15	$X=8.5185 $Y=9.312
C7	OUT	VSS	2.16166e-16	$X=20.939 $Y=4.604
C8	avC34	VSS	6.75075e-15	$X=5.515 $Y=1.714
C9	avC12	VSS	1.42152e-14	$X=8.472 $Y=4.204
C10	avC14	VSS	2.39748e-14	$X=8.358 $Y=6.431
C11	avC5	VSS	2.27847e-14	$X=7.701 $Y=6.9635
C12	avC35	VSS	4.54306e-16	$X=1.546 $Y=5.59
C13	avC4	VSS	8.846e-16	$X=0.1885 $Y=5.9865
C14	avC15	VSS	7.33273e-16	$X=1.1955 $Y=6.142
C15	avC36	VSS	4.5636e-16	$X=2.8255 $Y=5.59
C16	avC16	VSS	7.26011e-16	$X=2.474 $Y=6.1415
C17	avC37	VSS	4.56387e-16	$X=4.105 $Y=5.59
C18	avC17	VSS	7.26004e-16	$X=3.753 $Y=6.142
C19	avC38	VSS	4.56461e-16	$X=5.385 $Y=5.59
C20	avC18	VSS	7.26004e-16	$X=5.0315 $Y=6.142
C21	avC39	VSS	4.56355e-16	$X=6.6645 $Y=5.59
C22	avC19	VSS	7.26004e-16	$X=6.31 $Y=6.142
C23	avC40	VSS	4.56329e-16	$X=7.944 $Y=5.59
C24	avC20	VSS	7.26004e-16	$X=7.589 $Y=6.142
C25	avC41	VSS	4.55002e-16	$X=9.224 $Y=5.59
C26	avC21	VSS	7.26004e-16	$X=8.8675 $Y=6.142
C27	avC42	VSS	4.54871e-16	$X=10.5035 $Y=5.59
C28	avC22	VSS	7.25063e-16	$X=10.146 $Y=6.1415
C29	avC43	VSS	4.56222e-16	$X=11.783 $Y=5.59
C30	avC23	VSS	7.26004e-16	$X=11.4245 $Y=6.142
C31	avC44	VSS	4.5541e-16	$X=13.0625 $Y=5.59
C32	avC24	VSS	7.26004e-16	$X=12.7035 $Y=6.1415
C33	avC45	VSS	4.55813e-16	$X=14.3425 $Y=5.59
C34	avC25	VSS	7.26004e-16	$X=13.982 $Y=6.142
C35	avC46	VSS	4.55746e-16	$X=15.622 $Y=5.59
C36	avC26	VSS	7.26004e-16	$X=15.2605 $Y=6.142
C37	avC47	VSS	4.56354e-16	$X=16.9015 $Y=5.59
C38	avC27	VSS	7.26004e-16	$X=16.5395 $Y=6.1415
C39	avC48	VSS	4.5517e-16	$X=18.1815 $Y=5.59
C40	avC28	VSS	7.2614e-16	$X=17.818 $Y=6.142
C41	avC33	VSS	4.50773e-16	$X=19.461 $Y=5.59
C42	avC29	VSS	7.02009e-16	$X=19.0965 $Y=6.142
C43	avC51	VSS	1.47024e-15	$X=17.936 $Y=8.5065
C44	avC50	VSS	1.65783e-15	$X=16.66 $Y=8.5065
C45	avC60	VSS	1.68397e-15	$X=5.1695 $Y=8.507
C46	avC59	VSS	1.68399e-15	$X=3.8925 $Y=8.507
C47	avC63	VSS	3.14644e-15	$X=0.2165 $Y=8.7675
C48	avC62	VSS	1.69691e-15	$X=1.3395 $Y=8.507
C49	avC61	VSS	2.88849e-15	$X=-1.341 $Y=8.401
C50	avC64	VSS	1.77469e-15	$X=-1.8285 $Y=7.7435
C51	avC49	VSS	1.66203e-15	$X=15.3835 $Y=8.5065
C52	avC53	VSS	3.62748e-15	$X=8.313 $Y=8.731
C53	avC52	VSS	1.68495e-15	$X=12.83 $Y=8.507
C54	avC55	VSS	1.68397e-15	$X=11.553 $Y=8.507
C55	avC54	VSS	1.69295e-15	$X=10.2765 $Y=8.5065
C56	avC58	VSS	1.68749e-15	$X=8.9995 $Y=8.507
C57	avC57	VSS	1.68397e-15	$X=7.723 $Y=8.5065
C58	avC56	VSS	1.68397e-15	$X=6.446 $Y=8.5065
C59	avS71	VSS	5.90464e-17	$X=-0.68 $Y=4.914
C60	avS175	VSS	4.76402e-17	$X=-0.68 $Y=4.914
C61	avC11	VSS	9.13862e-17	$X=20.696 $Y=4.934
C62	avC10	VSS	1.02379e-16	$X=20.071 $Y=4.934
C63	avC9	VSS	3.57002e-16	$X=20.3595 $Y=4.619
C64	avC8	VSS	1.00392e-16	$X=20.689 $Y=4.307
C65	avC7	VSS	1.04376e-16	$X=20.059 $Y=4.307
C66	I6/avC25	VSS	3.0416e-15	$X=10.3265 $Y=9.6585
C67	I6/avC24	VSS	1.29306e-15	$X=-3.0945 $Y=9.024
C68	I6/avC23	VSS	1.05079e-15	$X=-3.5235 $Y=9.5905
C69	I6/I3/avC7	VSS	7.37035e-16	$X=-4.9 $Y=9.4175
C70	I6/I3/avC6	VSS	5.09406e-16	$X=-4.5105 $Y=9.395
C71	I6/I2/avC7	VSS	7.76396e-16	$X=-2.4835 $Y=9.4165
C72	I6/I2/avC6	VSS	5.08535e-16	$X=-2.876 $Y=9.395
C73	I6/I4/avC7	VSS	7.45538e-16	$X=-4.3005 $Y=8.3045
C74	I6/I4/avC6	VSS	5.17585e-16	$X=-3.911 $Y=8.3265
C75	I6/I45/avC15	VSS	9.43595e-17	$X=18.251 $Y=8.989
C76	I6/I45/avC14	VSS	1.05305e-16	$X=17.626 $Y=8.989
C77	I6/I45/avC12	VSS	3.82428e-16	$X=17.917 $Y=8.6735
C78	I6/I45/avC11	VSS	8.15811e-16	$X=17.711 $Y=9.254
C79	I6/I45/avC10	VSS	9.60414e-17	$X=18.244 $Y=8.3615
C80	I6/I45/avC9	VSS	1.06989e-16	$X=17.605 $Y=8.359
C81	I6/I44/avC15	VSS	9.40843e-17	$X=16.971 $Y=8.989
C82	I6/I44/avC14	VSS	1.05463e-16	$X=16.346 $Y=8.989
C83	I6/I44/avC12	VSS	3.81709e-16	$X=16.6375 $Y=8.6735
C84	I6/I44/avC11	VSS	8.17891e-16	$X=16.4315 $Y=9.254
C85	I6/I44/avC10	VSS	9.58389e-17	$X=16.964 $Y=8.3615
C86	I6/I44/avC9	VSS	1.07e-16	$X=16.325 $Y=8.359
C87	I6/I43/avC15	VSS	9.40843e-17	$X=15.6915 $Y=8.989
C88	I6/I43/avC14	VSS	1.05375e-16	$X=15.0665 $Y=8.989
C89	I6/I43/avC12	VSS	3.81709e-16	$X=15.3575 $Y=8.6735
C90	I6/I43/avC11	VSS	8.16904e-16	$X=15.1525 $Y=9.254
C91	I6/I43/avC10	VSS	9.58389e-17	$X=15.684 $Y=8.3615
C92	I6/I43/avC9	VSS	1.07e-16	$X=15.045 $Y=8.359
C93	I6/I42/avC15	VSS	9.56341e-17	$X=14.4115 $Y=8.989
C94	I6/I42/avC14	VSS	1.06113e-16	$X=13.7865 $Y=8.989
C95	I6/I42/avC12	VSS	3.83615e-16	$X=14.078 $Y=8.6735
C96	I6/I42/avC11	VSS	8.19079e-16	$X=13.873 $Y=9.254
C97	I6/I42/avC10	VSS	9.58389e-17	$X=14.404 $Y=8.3615
C98	I6/I42/avC9	VSS	1.07e-16	$X=13.765 $Y=8.359
C99	I6/I41/avC15	VSS	9.57185e-17	$X=13.1315 $Y=8.989
C100	I6/I41/avC14	VSS	1.06736e-16	$X=12.5065 $Y=8.989
C101	I6/I41/avC12	VSS	3.83615e-16	$X=12.798 $Y=8.6735
C102	I6/I41/avC11	VSS	8.18313e-16	$X=12.5935 $Y=9.254
C103	I6/I41/avC10	VSS	9.58389e-17	$X=13.124 $Y=8.3615
C104	I6/I41/avC9	VSS	1.07e-16	$X=12.485 $Y=8.359
C105	I6/I40/avC15	VSS	9.57185e-17	$X=11.8515 $Y=8.989
C106	I6/I40/avC14	VSS	1.06736e-16	$X=11.2265 $Y=8.989
C107	I6/I40/avC12	VSS	3.83615e-16	$X=11.5185 $Y=8.6735
C108	I6/I40/avC11	VSS	8.18313e-16	$X=11.314 $Y=9.254
C109	I6/I40/avC10	VSS	9.58389e-17	$X=11.844 $Y=8.3615
C110	I6/I40/avC9	VSS	1.07e-16	$X=11.205 $Y=8.359
C111	I6/I39/avC15	VSS	9.57185e-17	$X=10.5715 $Y=8.989
C112	I6/I39/avC14	VSS	1.06736e-16	$X=9.9465 $Y=8.989
C113	I6/I39/avC12	VSS	3.83615e-16	$X=10.2385 $Y=8.6735
C114	I6/I39/avC11	VSS	8.18313e-16	$X=10.0345 $Y=9.254
C115	I6/I39/avC10	VSS	9.59173e-17	$X=10.564 $Y=8.3615
C116	I6/I39/avC9	VSS	1.07076e-16	$X=9.925 $Y=8.359
C117	I6/I38/avC15	VSS	9.57185e-17	$X=9.2915 $Y=8.989
C118	I6/I38/avC14	VSS	1.06736e-16	$X=8.6665 $Y=8.989
C119	I6/I38/avC12	VSS	3.83615e-16	$X=8.959 $Y=8.6735
C120	I6/I38/avC11	VSS	8.18313e-16	$X=8.755 $Y=9.254
C121	I6/I38/avC10	VSS	9.58389e-17	$X=9.284 $Y=8.3615
C122	I6/I38/avC9	VSS	1.07e-16	$X=8.645 $Y=8.359
C123	I6/I37/avC15	VSS	9.57185e-17	$X=8.0115 $Y=8.989
C124	I6/I37/avC14	VSS	1.06736e-16	$X=7.387 $Y=8.989
C125	I6/I37/avC12	VSS	3.83615e-16	$X=7.679 $Y=8.6735
C126	I6/I37/avC11	VSS	8.18313e-16	$X=7.476 $Y=9.254
C127	I6/I37/avC10	VSS	9.58389e-17	$X=8.004 $Y=8.3615
C128	I6/I37/avC9	VSS	1.07e-16	$X=7.3655 $Y=8.359
C129	I6/I36/avC15	VSS	9.57185e-17	$X=6.732 $Y=8.989
C130	I6/I36/avC14	VSS	1.06736e-16	$X=6.107 $Y=8.989
C131	I6/I36/avC12	VSS	3.83615e-16	$X=6.3995 $Y=8.6735
C132	I6/I36/avC11	VSS	8.18313e-16	$X=6.1965 $Y=9.254
C133	I6/I36/avC10	VSS	9.58389e-17	$X=6.7245 $Y=8.3615
C134	I6/I36/avC9	VSS	1.07e-16	$X=6.0855 $Y=8.359
C135	I6/I35/avC15	VSS	9.57185e-17	$X=5.452 $Y=8.989
C136	I6/I35/avC14	VSS	1.06736e-16	$X=4.827 $Y=8.989
C137	I6/I35/avC12	VSS	3.83615e-16	$X=5.12 $Y=8.6735
C138	I6/I35/avC11	VSS	8.18313e-16	$X=4.917 $Y=9.254
C139	I6/I35/avC10	VSS	9.58389e-17	$X=5.4445 $Y=8.3615
C140	I6/I35/avC9	VSS	1.07e-16	$X=4.8055 $Y=8.359
C141	I6/I34/avC15	VSS	9.57185e-17	$X=4.172 $Y=8.989
C142	I6/I34/avC14	VSS	1.06736e-16	$X=3.547 $Y=8.989
C143	I6/I34/avC12	VSS	3.83703e-16	$X=3.84 $Y=8.6735
C144	I6/I34/avC11	VSS	8.17937e-16	$X=3.6375 $Y=9.254
C145	I6/I34/avC10	VSS	9.58389e-17	$X=4.1645 $Y=8.3615
C146	I6/I34/avC9	VSS	1.06871e-16	$X=3.5255 $Y=8.359
C147	I6/I33/avC15	VSS	9.46514e-17	$X=2.892 $Y=8.989
C148	I6/I33/avC14	VSS	1.05454e-16	$X=2.267 $Y=8.989
C149	I6/I33/avC12	VSS	3.8217e-16	$X=2.5605 $Y=8.6735
C150	I6/I33/avC11	VSS	8.19769e-16	$X=2.358 $Y=9.254
C151	I6/I33/avC10	VSS	9.7043e-17	$X=2.8845 $Y=8.3615
C152	I6/I33/avC9	VSS	1.09354e-16	$X=2.2455 $Y=8.359
C153	I6/I32/avC15	VSS	9.46514e-17	$X=1.612 $Y=8.989
C154	I6/I32/avC14	VSS	1.05454e-16	$X=0.987 $Y=8.989
C155	I6/I32/avC12	VSS	3.8246e-16	$X=1.2805 $Y=8.6735
C156	I6/I32/avC11	VSS	8.19233e-16	$X=1.0785 $Y=9.254
C157	I6/I32/avC10	VSS	9.72533e-17	$X=1.6045 $Y=8.3615
C158	I6/I32/avC9	VSS	1.0976e-16	$X=0.9655 $Y=8.359
C159	I6/I31/avC15	VSS	9.41883e-17	$X=0.332 $Y=8.989
C160	I6/I31/avC14	VSS	1.04962e-16	$X=-0.2925 $Y=8.989
C161	I6/I31/avC12	VSS	3.81999e-16	$X=0.0015 $Y=8.6735
C162	I6/I31/avC11	VSS	7.80915e-16	$X=-0.1985 $Y=9.254
C163	I6/I31/avC10	VSS	9.83263e-17	$X=0.3245 $Y=8.3615
C164	I6/I31/avC9	VSS	1.09357e-16	$X=-0.3135 $Y=8.359
C165	I6/I1/avC15	VSS	9.22454e-17	$X=-0.9475 $Y=8.989
C166	I6/I1/avC14	VSS	1.02817e-16	$X=-1.572 $Y=8.989
C167	I6/I1/avC12	VSS	3.8008e-16	$X=-1.2775 $Y=8.6735
C168	I6/I1/avC11	VSS	7.47675e-16	$X=-1.478 $Y=9.254
C169	I6/I1/avC10	VSS	9.67646e-17	$X=-0.955 $Y=8.3615
C170	I6/I1/avC9	VSS	1.094e-16	$X=-1.5935 $Y=8.359
C171	I2/avC7	VSS	2.63016e-15	$X=8.3605 $Y=2.6565
C172	I2/out_xor2_s4f2__avC_8	VSS	1.01974e-15
+ $X=11.44 $Y=2.6165
C173	I2/avC27	VSS	1.29587e-15	$X=12.3365 $Y=2.702
C174	I2/A_xor2_s4f2__avC_8	VSS	1.79769e-15	$X=13.4245 $Y=2.518
C175	I2/B_xor2_s4f2__avC_8	VSS	1.08428e-15	$X=13.643 $Y=2.6095
C176	I2/avC28	VSS	9.48404e-16	$X=12.1305 $Y=2.663
C177	I2/avC6	VSS	1.05271e-15	$X=9.6005 $Y=2.6835
C178	I2/avC12	VSS	4.69509e-16	$X=10.386 $Y=2.6245
C179	I2/avC13	VSS	7.20091e-16	$X=1.944 $Y=0.6425
C180	I2/avC15	VSS	1.97993e-15	$X=4.412 $Y=1.002
C181	I2/avC26	VSS	9.53953e-16	$X=18.3565 $Y=1.2995
C182	I2/avC14	VSS	1.43564e-15	$X=4.7085 $Y=0.789
C183	I2/avC16	VSS	7.02386e-16	$X=5.7685 $Y=0.6425
C184	I2/avC18	VSS	1.86363e-15	$X=8.2275 $Y=1.002
C185	I2/avC17	VSS	1.41432e-15	$X=8.528 $Y=0.789
C186	I2/avC19	VSS	7.00019e-16	$X=9.5905 $Y=0.6425
C187	I2/avC21	VSS	1.84433e-15	$X=12.045 $Y=1.002
C188	I2/avC20	VSS	1.54437e-15	$X=12.3535 $Y=0.789
C189	I2/avC22	VSS	7.02202e-16	$X=13.418 $Y=0.6425
C190	I2/avC24	VSS	1.82414e-15	$X=15.8505 $Y=1.011
C191	I2/avC23	VSS	1.40758e-15	$X=16.173 $Y=0.789
C192	I2/avC25	VSS	7.15771e-16	$X=17.245 $Y=0.643
C193	I2/avS256	VSS	2.72467e-16	$X=4.3895 $Y=1.4445
C194	I2/I5/avC8	VSS	4.47698e-16	$X=14.0325 $Y=2.895
C195	I2/I5/avC7	VSS	4.71718e-16	$X=15.2505 $Y=2.9035
C196	I2/I5/avC5	VSS	4.54165e-16	$X=14.898 $Y=2.5315
C197	I2/I5/avC4	VSS	3.60342e-16	$X=14.031 $Y=2.1525
C198	I2/I5/avC3	VSS	4.3576e-16	$X=15.259 $Y=2.153
C199	I2/I15/avC8	VSS	4.44309e-16	$X=17.5535 $Y=1.0315
C200	I2/I15/avC7	VSS	4.5859e-16	$X=16.3355 $Y=1.04
C201	I2/I15/avC5	VSS	4.42358e-16	$X=16.692 $Y=0.6675
C202	I2/I15/avC4	VSS	3.59661e-16	$X=17.559 $Y=0.2885
C203	I2/I15/avC3	VSS	4.18245e-16	$X=16.331 $Y=0.289
C204	I2/I12/avC8	VSS	4.47958e-16	$X=13.726 $Y=1.0315
C205	I2/I12/avC7	VSS	4.62703e-16	$X=12.508 $Y=1.04
C206	I2/I12/avC5	VSS	4.44214e-16	$X=12.864 $Y=0.6675
C207	I2/I12/avC4	VSS	3.59616e-16	$X=13.7305 $Y=0.2885
C208	I2/I12/avC3	VSS	4.1864e-16	$X=12.5025 $Y=0.289
C209	I2/I9/avC8	VSS	4.47562e-16	$X=9.8985 $Y=1.0315
C210	I2/I9/avC7	VSS	4.61934e-16	$X=8.6805 $Y=1.04
C211	I2/I9/avC5	VSS	4.42625e-16	$X=9.0355 $Y=0.6675
C212	I2/I9/avC4	VSS	3.59611e-16	$X=9.9025 $Y=0.2885
C213	I2/I9/avC3	VSS	4.18242e-16	$X=8.6745 $Y=0.289
C214	I2/I3/avC8	VSS	4.48955e-16	$X=6.0765 $Y=1.0315
C215	I2/I3/avC7	VSS	4.62357e-16	$X=4.858 $Y=1.04
C216	I2/I3/avC5	VSS	4.41254e-16	$X=5.2125 $Y=0.6675
C217	I2/I3/avC4	VSS	3.59613e-16	$X=6.079 $Y=0.2885
C218	I2/I3/avC3	VSS	4.18242e-16	$X=4.851 $Y=0.289
C219	I2/I4/avC9	VSS	4.49372e-16	$X=16.491 $Y=2.895
C220	I2/I4/avC8	VSS	4.48543e-16	$X=17.709 $Y=2.9035
C221	I2/I4/avC7	VSS	4.52169e-16	$X=17.357 $Y=2.5315
C222	I2/I4/avC6	VSS	3.82565e-16	$X=16.49 $Y=2.1525
C223	I2/I4/avC5	VSS	4.27003e-16	$X=17.718 $Y=2.153
C224	I2/I1/avC9	VSS	4.46139e-16	$X=2.254 $Y=1.0315
C225	I2/I1/avC8	VSS	4.60473e-16	$X=1.0355 $Y=1.04
C226	I2/I1/avC7	VSS	4.4427e-16	$X=1.389 $Y=0.6675
C227	I2/I1/avC6	VSS	3.59651e-16	$X=2.2555 $Y=0.2885
C228	I2/I1/avC5	VSS	4.22448e-16	$X=1.0275 $Y=0.289
C229	avI17/avC14	VSS	9.26572e-17	$X=19.416 $Y=4.934
C230	avI17/avC13	VSS	1.01561e-16	$X=18.791 $Y=4.934
C231	avI17/avC11	VSS	3.59036e-16	$X=19.08 $Y=4.619
C232	avI17/avC10	VSS	5.84391e-16	$X=19.348 $Y=5.2925
C233	avI17/avC9	VSS	1.00082e-16	$X=19.409 $Y=4.307
C234	avI17/avC8	VSS	1.04247e-16	$X=18.779 $Y=4.307
C235	avI16/avC14	VSS	9.26572e-17	$X=18.136 $Y=4.934
C236	avI16/avC13	VSS	1.01675e-16	$X=17.511 $Y=4.934
C237	avI16/avC11	VSS	3.60512e-16	$X=17.8 $Y=4.619
C238	avI16/avC10	VSS	5.93355e-16	$X=18.0685 $Y=5.2925
C239	avI16/avC9	VSS	1.00158e-16	$X=18.129 $Y=4.307
C240	avI16/avC8	VSS	1.04459e-16	$X=17.499 $Y=4.307
C241	avI15/avC14	VSS	9.26572e-17	$X=16.856 $Y=4.934
C242	avI15/avC13	VSS	1.01647e-16	$X=16.231 $Y=4.934
C243	avI15/avC11	VSS	3.598e-16	$X=16.5205 $Y=4.619
C244	avI15/avC10	VSS	5.94256e-16	$X=16.7895 $Y=5.2925
C245	avI15/avC9	VSS	1.00493e-16	$X=16.849 $Y=4.307
C246	avI15/avC8	VSS	1.039e-16	$X=16.219 $Y=4.307
C247	avI14/avC14	VSS	9.26572e-17	$X=15.5765 $Y=4.934
C248	avI14/avC13	VSS	1.01652e-16	$X=14.9515 $Y=4.934
C249	avI14/avC11	VSS	3.59852e-16	$X=15.2405 $Y=4.619
C250	avI14/avC10	VSS	5.94482e-16	$X=15.51 $Y=5.2925
C251	avI14/avC9	VSS	1.00415e-16	$X=15.569 $Y=4.307
C252	avI14/avC8	VSS	1.04156e-16	$X=14.939 $Y=4.307
C253	avI13/avC14	VSS	9.26572e-17	$X=14.2965 $Y=4.934
C254	avI13/avC13	VSS	1.01616e-16	$X=13.6715 $Y=4.934
C255	avI13/avC11	VSS	3.59547e-16	$X=13.961 $Y=4.619
C256	avI13/avC10	VSS	5.94222e-16	$X=14.231 $Y=5.2925
C257	avI13/avC9	VSS	1.00069e-16	$X=14.289 $Y=4.307
C258	avI13/avC8	VSS	1.04214e-16	$X=13.659 $Y=4.307
C259	avI12/avC14	VSS	9.27622e-17	$X=13.0165 $Y=4.934
C260	avI12/avC13	VSS	1.01721e-16	$X=12.3915 $Y=4.934
C261	avI12/avC11	VSS	3.60131e-16	$X=12.681 $Y=4.619
C262	avI12/avC10	VSS	5.94619e-16	$X=12.9515 $Y=5.2925
C263	avI12/avC9	VSS	1.00107e-16	$X=13.009 $Y=4.307
C264	avI12/avC8	VSS	1.04107e-16	$X=12.379 $Y=4.307
C265	avI11/avC14	VSS	9.27622e-17	$X=11.7365 $Y=4.934
C266	avI11/avC13	VSS	1.01616e-16	$X=11.1115 $Y=4.934
C267	avI11/avC11	VSS	3.60307e-16	$X=11.4015 $Y=4.619
C268	avI11/avC10	VSS	5.93405e-16	$X=11.6725 $Y=5.2925
C269	avI11/avC9	VSS	1.00107e-16	$X=11.729 $Y=4.307
C270	avI11/avC8	VSS	1.04247e-16	$X=11.099 $Y=4.307
C271	avI10/avC14	VSS	9.26572e-17	$X=10.4565 $Y=4.934
C272	avI10/avC13	VSS	1.01654e-16	$X=9.8315 $Y=4.934
C273	avI10/avC11	VSS	3.60913e-16	$X=10.1215 $Y=4.619
C274	avI10/avC10	VSS	5.9406e-16	$X=10.393 $Y=5.2925
C275	avI10/avC9	VSS	1.00444e-16	$X=10.449 $Y=4.307
C276	avI10/avC8	VSS	1.04657e-16	$X=9.819 $Y=4.307
C277	avI9/avC14	VSS	9.27541e-17	$X=9.1765 $Y=4.934
C278	avI9/avC13	VSS	1.01644e-16	$X=8.5515 $Y=4.934
C279	avI9/avC11	VSS	3.60774e-16	$X=8.842 $Y=4.619
C280	avI9/avC10	VSS	5.94959e-16	$X=9.114 $Y=5.2925
C281	avI9/avC9	VSS	1.00362e-16	$X=9.169 $Y=4.307
C282	avI9/avC8	VSS	1.04329e-16	$X=8.539 $Y=4.307
C283	avI8/avC14	VSS	9.26572e-17	$X=7.8965 $Y=4.934
C284	avI8/avC13	VSS	1.01637e-16	$X=7.272 $Y=4.934
C285	avI8/avC11	VSS	3.59789e-16	$X=7.5625 $Y=4.619
C286	avI8/avC10	VSS	5.94625e-16	$X=7.8345 $Y=5.2925
C287	avI8/avC9	VSS	1.00069e-16	$X=7.889 $Y=4.307
C288	avI8/avC8	VSS	1.0401e-16	$X=7.2595 $Y=4.307
C289	avI7/avC14	VSS	9.27328e-17	$X=6.617 $Y=4.934
C290	avI7/avC13	VSS	1.01637e-16	$X=5.992 $Y=4.934
C291	avI7/avC11	VSS	3.60366e-16	$X=6.2825 $Y=4.619
C292	avI7/avC10	VSS	5.94361e-16	$X=6.5555 $Y=5.2925
C293	avI7/avC9	VSS	9.99591e-17	$X=6.6095 $Y=4.307
C294	avI7/avC8	VSS	1.0401e-16	$X=5.9795 $Y=4.307
C295	avI6/avC14	VSS	9.27328e-17	$X=5.337 $Y=4.934
C296	avI6/avC13	VSS	1.01637e-16	$X=4.712 $Y=4.934
C297	avI6/avC11	VSS	3.60412e-16	$X=5.003 $Y=4.619
C298	avI6/avC10	VSS	5.94507e-16	$X=5.276 $Y=5.2925
C299	avI6/avC9	VSS	1.00501e-16	$X=5.3295 $Y=4.307
C300	avI6/avC8	VSS	1.04707e-16	$X=4.6995 $Y=4.307
C301	avI5/avC14	VSS	9.27554e-17	$X=4.057 $Y=4.934
C302	avI5/avC13	VSS	1.01655e-16	$X=3.432 $Y=4.934
C303	avI5/avC11	VSS	3.60912e-16	$X=3.723 $Y=4.619
C304	avI5/avC10	VSS	5.93568e-16	$X=3.997 $Y=5.2925
C305	avI5/avC9	VSS	1.00685e-16	$X=4.0495 $Y=4.307
C306	avI5/avC8	VSS	1.04433e-16	$X=3.4195 $Y=4.307
C307	avI4/avC14	VSS	9.27386e-17	$X=2.777 $Y=4.934
C308	avI4/avC13	VSS	1.01638e-16	$X=2.152 $Y=4.934
C309	avI4/avC11	VSS	3.60962e-16	$X=2.4435 $Y=4.619
C310	avI4/avC10	VSS	5.95014e-16	$X=2.7175 $Y=5.2925
C311	avI4/avC9	VSS	1.0015e-16	$X=2.7695 $Y=4.307
C312	avI4/avC8	VSS	1.04063e-16	$X=2.1395 $Y=4.307
C313	avI3/avC14	VSS	9.33208e-17	$X=1.497 $Y=4.934
C314	avI3/avC13	VSS	1.03395e-16	$X=0.872 $Y=4.934
C315	avI3/avC11	VSS	3.61824e-16	$X=1.1635 $Y=4.619
C316	avI3/avC10	VSS	5.894e-16	$X=1.4385 $Y=5.2925
C317	avI3/avC9	VSS	9.99591e-17	$X=1.4895 $Y=4.307
C318	avI3/avC8	VSS	1.00473e-16	$X=0.8595 $Y=4.307
*
*
.ENDS clock_serializer
*
